MODEL 1
REMARK VINA RESULT:      -0.0      0.000      0.000
REMARK  Name = 
REMARK  9 active torsions:
REMARK  status: ('A' for Active; 'I' for Inactive)
REMARK    1  A    between atoms: O_2  and  C_3
REMARK    2  A    between atoms: C_3  and  C_4
REMARK    3  A    between atoms: C_4  and  C_6
REMARK    4  A    between atoms: C_6  and  C_7
REMARK    5  A    between atoms: N_9  and  C_10
REMARK    6  A    between atoms: C_10  and  C_12
REMARK    7  A    between atoms: N_14  and  C_15
REMARK    8  A    between atoms: C_15  and  C_16
REMARK    9  A    between atoms: C_20  and  O_21
REMARK                            x       y       z     vdW  Elec       q    Type
REMARK                         _______ _______ _______ _____ _____    ______ ____
ROOT
ATOM      1  C   UNL     1       9.539 -15.272 -57.415  0.00  0.00    +0.052 C 
ATOM      2  C   UNL     1      10.368 -14.048 -57.197  0.00  0.00    +0.075 C 
ATOM      3  N   UNL     1       9.108 -13.413 -56.914  0.00  0.00    -0.269 NA
ATOM      4  C   UNL     1       8.755 -14.655 -56.275  0.00  0.00    +0.075 C 
ENDROOT
BRANCH   1   5
ATOM      5  C   UNL     1       8.494 -15.090 -58.641  0.00  0.00    +0.098 C 
ATOM      6  C   UNL     1       8.974 -16.388 -59.531  0.00  0.00    +0.024 C 
BRANCH   5   8
ATOM      7  C   UNL     1       6.083 -15.455 -58.448  0.00  0.00    +0.241 C 
ATOM      8  N   UNL     1       7.327 -15.916 -57.955  0.00  0.00    -0.207 NA
ATOM      9  O   UNL     1       6.056 -14.534 -59.291  0.00  0.00    -0.273 OA
BRANCH   7  10
ATOM     10  C   UNL     1       4.818 -16.057 -57.971  0.00  0.00    +0.089 C 
BRANCH  10  11
ATOM     11  C   UNL     1       4.834 -15.753 -56.363  0.00  0.00    +0.039 C 
ATOM     12  C   UNL     1       3.593 -16.762 -56.040  0.00  0.00    +0.003 C 
BRANCH  11  13
ATOM     13  C   UNL     1       3.908 -14.420 -56.484  0.00  0.00    +0.143 C 
BRANCH  13  15
ATOM     14  C   UNL     1       5.399 -13.631 -54.903  0.00  0.00    +0.174 C 
ATOM     15  O   UNL     1       4.580 -13.362 -55.964  0.00  0.00    -0.351 OA
ENDBRANCH  13  15
ENDBRANCH  11  13
ENDBRANCH  10  11
ENDBRANCH   7  10
ENDBRANCH   5   8
ENDBRANCH   1   5
BRANCH   3  16
ATOM     16  C   UNL     1       9.070 -12.212 -56.214  0.00  0.00    +0.099 C 
BRANCH  16  17
ATOM     17  C   UNL     1       7.866 -11.421 -56.478  0.00  0.00    +0.000 A 
ATOM     18  C   UNL     1       7.209 -11.624 -57.675  0.00  0.00    +0.055 A 
ATOM     19  C   UNL     1       6.077 -10.880 -57.925  0.00  0.00    +0.225 A 
ATOM     20  N   UNL     1       5.639  -9.978 -57.010  0.00  0.00    -0.210 NA
ATOM     21  C   UNL     1       6.298  -9.794 -55.844  0.00  0.00    +0.102 A 
ATOM     22  C   UNL     1       7.449 -10.515 -55.529  0.00  0.00    +0.018 A 
BRANCH  19  23
ATOM     23  O   UNL     1       5.421 -11.087 -59.128  0.00  0.00    -0.456 OA
ATOM     24  C   UNL     1       4.097 -11.555 -59.096  0.00  0.00    +0.254 C 
ENDBRANCH  19  23
ENDBRANCH  16  17
ENDBRANCH   3  16
TORSDOF 9
ENDMDL
MODEL 2
REMARK VINA RESULT:      -0.0     14.274     16.839
REMARK  Name = 
REMARK  9 active torsions:
REMARK  status: ('A' for Active; 'I' for Inactive)
REMARK    1  A    between atoms: O_2  and  C_3
REMARK    2  A    between atoms: C_3  and  C_4
REMARK    3  A    between atoms: C_4  and  C_6
REMARK    4  A    between atoms: C_6  and  C_7
REMARK    5  A    between atoms: N_9  and  C_10
REMARK    6  A    between atoms: C_10  and  C_12
REMARK    7  A    between atoms: N_14  and  C_15
REMARK    8  A    between atoms: C_15  and  C_16
REMARK    9  A    between atoms: C_20  and  O_21
REMARK                            x       y       z     vdW  Elec       q    Type
REMARK                         _______ _______ _______ _____ _____    ______ ____
ROOT
ATOM      1  C   UNL     1      -7.020 -12.366 -61.406  0.00  0.00    +0.052 C 
ATOM      2  C   UNL     1      -7.857 -11.165 -61.706  0.00  0.00    +0.075 C 
ATOM      3  N   UNL     1      -8.466 -12.009 -62.700  0.00  0.00    -0.269 NA
ATOM      4  C   UNL     1      -8.326 -13.062 -61.728  0.00  0.00    +0.075 C 
ENDROOT
BRANCH   1   5
ATOM      5  C   UNL     1      -6.114 -12.809 -62.677  0.00  0.00    +0.098 C 
ATOM      6  C   UNL     1      -4.648 -12.738 -61.934  0.00  0.00    +0.024 C 
BRANCH   5   8
ATOM      7  C   UNL     1      -6.112 -15.062 -63.631  0.00  0.00    +0.241 C 
ATOM      8  N   UNL     1      -6.243 -14.366 -62.405  0.00  0.00    -0.207 NA
ATOM      9  O   UNL     1      -5.925 -14.422 -64.687  0.00  0.00    -0.273 OA
BRANCH   7  10
ATOM     10  C   UNL     1      -6.195 -16.539 -63.667  0.00  0.00    +0.089 C 
BRANCH  10  11
ATOM     11  C   UNL     1      -7.704 -16.850 -63.116  0.00  0.00    +0.039 C 
ATOM     12  C   UNL     1      -7.430 -18.447 -62.919  0.00  0.00    +0.003 C 
BRANCH  11  13
ATOM     13  C   UNL     1      -8.346 -16.996 -64.603  0.00  0.00    +0.143 C 
BRANCH  13  15
ATOM     14  C   UNL     1     -10.069 -15.807 -63.620  0.00  0.00    +0.174 C 
ATOM     15  O   UNL     1      -9.349 -16.092 -64.747  0.00  0.00    -0.351 OA
ENDBRANCH  13  15
ENDBRANCH  11  13
ENDBRANCH  10  11
ENDBRANCH   7  10
ENDBRANCH   5   8
ENDBRANCH   1   5
BRANCH   3  16
ATOM     16  C   UNL     1      -9.710 -11.683 -63.229  0.00  0.00    +0.099 C 
BRANCH  16  17
ATOM     17  C   UNL     1      -9.951 -12.263 -64.552  0.00  0.00    +0.000 A 
ATOM     18  C   UNL     1      -8.855 -12.574 -65.331  0.00  0.00    +0.055 A 
ATOM     19  C   UNL     1      -9.081 -13.117 -66.577  0.00  0.00    +0.225 A 
ATOM     20  N   UNL     1     -10.350 -13.332 -67.006  0.00  0.00    -0.210 NA
ATOM     21  C   UNL     1     -11.410 -13.019 -66.227  0.00  0.00    +0.102 A 
ATOM     22  C   UNL     1     -11.251 -12.467 -64.957  0.00  0.00    +0.018 A 
BRANCH  19  23
ATOM     23  O   UNL     1      -7.977 -13.428 -67.355  0.00  0.00    -0.456 OA
ATOM     24  C   UNL     1      -7.777 -14.766 -67.729  0.00  0.00    +0.254 C 
ENDBRANCH  19  23
ENDBRANCH  16  17
ENDBRANCH   3  16
TORSDOF 9
ENDMDL
MODEL 3
REMARK VINA RESULT:      -0.0     70.791     73.664
REMARK  Name = 
REMARK  9 active torsions:
REMARK  status: ('A' for Active; 'I' for Inactive)
REMARK    1  A    between atoms: O_2  and  C_3
REMARK    2  A    between atoms: C_3  and  C_4
REMARK    3  A    between atoms: C_4  and  C_6
REMARK    4  A    between atoms: C_6  and  C_7
REMARK    5  A    between atoms: N_9  and  C_10
REMARK    6  A    between atoms: C_10  and  C_12
REMARK    7  A    between atoms: N_14  and  C_15
REMARK    8  A    between atoms: C_15  and  C_16
REMARK    9  A    between atoms: C_20  and  O_21
REMARK                            x       y       z     vdW  Elec       q    Type
REMARK                         _______ _______ _______ _____ _____    ______ ____
ROOT
ATOM      1  C   UNL     1     -32.028  41.851 -86.680  0.00  0.00    +0.052 C 
ATOM      2  C   UNL     1     -32.392  43.274 -86.959  0.00  0.00    +0.075 C 
ATOM      3  N   UNL     1     -31.558  43.115 -88.121  0.00  0.00    -0.269 NA
ATOM      4  C   UNL     1     -32.105  41.785 -88.192  0.00  0.00    +0.075 C 
ENDROOT
BRANCH   1   5
ATOM      5  C   UNL     1     -30.434  41.666 -86.446  0.00  0.00    +0.098 C 
ATOM      6  C   UNL     1     -30.513  40.971 -84.957  0.00  0.00    +0.024 C 
BRANCH   5   8
ATOM      7  C   UNL     1     -29.047  40.081 -87.690  0.00  0.00    +0.241 C 
ATOM      8  N   UNL     1     -30.350  40.255 -87.165  0.00  0.00    -0.207 NA
ATOM      9  O   UNL     1     -28.194  40.980 -87.537  0.00  0.00    -0.273 OA
BRANCH   7  10
ATOM     10  C   UNL     1     -28.692  38.842 -88.418  0.00  0.00    +0.089 C 
BRANCH  10  11
ATOM     11  C   UNL     1     -29.710  38.847 -89.699  0.00  0.00    +0.039 C 
ATOM     12  C   UNL     1     -29.377  37.306 -90.120  0.00  0.00    +0.003 C 
BRANCH  11  13
ATOM     13  C   UNL     1     -28.624  39.511 -90.712  0.00  0.00    +0.143 C 
BRANCH  13  15
ATOM     14  C   UNL     1     -30.488  40.689 -91.408  0.00  0.00    +0.174 C 
ATOM     15  O   UNL     1     -29.134  40.661 -91.222  0.00  0.00    -0.351 OA
ENDBRANCH  13  15
ENDBRANCH  11  13
ENDBRANCH  10  11
ENDBRANCH   7  10
ENDBRANCH   5   8
ENDBRANCH   1   5
BRANCH   3  16
ATOM     16  C   UNL     1     -31.674  43.995 -89.192  0.00  0.00    +0.099 C 
BRANCH  16  17
ATOM     17  C   UNL     1     -30.463  44.079 -90.010  0.00  0.00    +0.000 A 
ATOM     18  C   UNL     1     -29.258  43.767 -89.416  0.00  0.00    +0.055 A 
ATOM     19  C   UNL     1     -28.118  43.848 -90.185  0.00  0.00    +0.225 A 
ATOM     20  N   UNL     1     -28.199  44.227 -91.486  0.00  0.00    -0.210 NA
ATOM     21  C   UNL     1     -29.390  44.530 -92.048  0.00  0.00    +0.102 A 
ATOM     22  C   UNL     1     -30.581  44.468 -91.326  0.00  0.00    +0.018 A 
BRANCH  19  23
ATOM     23  O   UNL     1     -26.909  43.532 -89.583  0.00  0.00    -0.456 OA
ATOM     24  C   UNL     1     -26.176  42.445 -90.085  0.00  0.00    +0.254 C 
ENDBRANCH  19  23
ENDBRANCH  16  17
ENDBRANCH   3  16
TORSDOF 9
ENDMDL
MODEL 4
REMARK VINA RESULT:      -0.0     53.017     55.365
REMARK  Name = 
REMARK  9 active torsions:
REMARK  status: ('A' for Active; 'I' for Inactive)
REMARK    1  A    between atoms: O_2  and  C_3
REMARK    2  A    between atoms: C_3  and  C_4
REMARK    3  A    between atoms: C_4  and  C_6
REMARK    4  A    between atoms: C_6  and  C_7
REMARK    5  A    between atoms: N_9  and  C_10
REMARK    6  A    between atoms: C_10  and  C_12
REMARK    7  A    between atoms: N_14  and  C_15
REMARK    8  A    between atoms: C_15  and  C_16
REMARK    9  A    between atoms: C_20  and  O_21
REMARK                            x       y       z     vdW  Elec       q    Type
REMARK                         _______ _______ _______ _____ _____    ______ ____
ROOT
ATOM      1  C   UNL     1       7.279  30.253 -92.278  0.00  0.00    +0.052 C 
ATOM      2  C   UNL     1       8.006  29.492 -93.340  0.00  0.00    +0.075 C 
ATOM      3  N   UNL     1       9.067  29.423 -92.371  0.00  0.00    -0.269 NA
ATOM      4  C   UNL     1       8.016  29.264 -91.399  0.00  0.00    +0.075 C 
ENDROOT
BRANCH   1   5
ATOM      5  C   UNL     1       8.038  31.633 -91.890  0.00  0.00    +0.098 C 
ATOM      6  C   UNL     1       6.785  32.659 -92.180  0.00  0.00    +0.024 C 
BRANCH   5   8
ATOM      7  C   UNL     1       8.691  32.240 -89.613  0.00  0.00    +0.241 C 
ATOM      8  N   UNL     1       7.693  31.553 -90.344  0.00  0.00    -0.207 NA
ATOM      9  O   UNL     1       9.640  32.780 -90.219  0.00  0.00    -0.273 OA
BRANCH   7  10
ATOM     10  C   UNL     1       8.615  32.321 -88.137  0.00  0.00    +0.089 C 
BRANCH  10  11
ATOM     11  C   UNL     1       8.674  30.755 -87.665  0.00  0.00    +0.039 C 
ATOM     12  C   UNL     1       8.237  31.080 -86.126  0.00  0.00    +0.003 C 
BRANCH  11  13
ATOM     13  C   UNL     1      10.273  30.779 -87.369  0.00  0.00    +0.143 C 
BRANCH  13  15
ATOM     14  C   UNL     1      10.154  28.692 -88.357  0.00  0.00    +0.174 C 
ATOM     15  O   UNL     1      10.880  29.827 -88.122  0.00  0.00    -0.351 OA
ENDBRANCH  13  15
ENDBRANCH  11  13
ENDBRANCH  10  11
ENDBRANCH   7  10
ENDBRANCH   5   8
ENDBRANCH   1   5
BRANCH   3  16
ATOM     16  C   UNL     1      10.073  28.473 -92.500  0.00  0.00    +0.099 C 
BRANCH  16  17
ATOM     17  C   UNL     1      11.320  28.848 -91.830  0.00  0.00    +0.000 A 
ATOM     18  C   UNL     1      11.566  30.191 -91.627  0.00  0.00    +0.055 A 
ATOM     19  C   UNL     1      12.739  30.545 -90.998  0.00  0.00    +0.225 A 
ATOM     20  N   UNL     1      13.614  29.587 -90.599  0.00  0.00    -0.210 NA
ATOM     21  C   UNL     1      13.354  28.277 -90.808  0.00  0.00    +0.102 A 
ATOM     22  C   UNL     1      12.185  27.851 -91.438  0.00  0.00    +0.018 A 
BRANCH  19  23
ATOM     23  O   UNL     1      12.982  31.895 -90.796  0.00  0.00    -0.456 OA
ATOM     24  C   UNL     1      13.115  32.361 -89.479  0.00  0.00    +0.254 C 
ENDBRANCH  19  23
ENDBRANCH  16  17
ENDBRANCH   3  16
TORSDOF 9
ENDMDL
MODEL 5
REMARK VINA RESULT:       0.0     50.570     52.399
REMARK  Name = 
REMARK  9 active torsions:
REMARK  status: ('A' for Active; 'I' for Inactive)
REMARK    1  A    between atoms: O_2  and  C_3
REMARK    2  A    between atoms: C_3  and  C_4
REMARK    3  A    between atoms: C_4  and  C_6
REMARK    4  A    between atoms: C_6  and  C_7
REMARK    5  A    between atoms: N_9  and  C_10
REMARK    6  A    between atoms: C_10  and  C_12
REMARK    7  A    between atoms: N_14  and  C_15
REMARK    8  A    between atoms: C_15  and  C_16
REMARK    9  A    between atoms: C_20  and  O_21
REMARK                            x       y       z     vdW  Elec       q    Type
REMARK                         _______ _______ _______ _____ _____    ______ ____
ROOT
ATOM      1  C   UNL     1      -4.777  18.613 -94.970  0.00  0.00    +0.052 C 
ATOM      2  C   UNL     1      -4.929  17.203 -95.443  0.00  0.00    +0.075 C 
ATOM      3  N   UNL     1      -3.656  17.424 -96.076  0.00  0.00    -0.269 NA
ATOM      4  C   UNL     1      -3.327  18.180 -94.896  0.00  0.00    +0.075 C 
ENDROOT
BRANCH   1   5
ATOM      5  C   UNL     1      -4.721  19.665 -96.203  0.00  0.00    +0.098 C 
ATOM      6  C   UNL     1      -5.971  20.623 -95.728  0.00  0.00    +0.024 C 
BRANCH   5   8
ATOM      7  C   UNL     1      -2.919  21.285 -96.535  0.00  0.00    +0.241 C 
ATOM      8  N   UNL     1      -3.653  20.620 -95.524  0.00  0.00    -0.207 NA
ATOM      9  O   UNL     1      -3.179  21.061 -97.736  0.00  0.00    -0.273 OA
BRANCH   7  10
ATOM     10  C   UNL     1      -1.849  22.243 -96.177  0.00  0.00    +0.089 C 
BRANCH  10  11
ATOM     11  C   UNL     1      -0.782  21.327 -95.339  0.00  0.00    +0.039 C 
ATOM     12  C   UNL     1       0.068  22.608 -94.792  0.00  0.00    +0.003 C 
BRANCH  11  13
ATOM     13  C   UNL     1       0.177  21.055 -96.624  0.00  0.00    +0.143 C 
BRANCH  13  15
ATOM     14  C   UNL     1       0.273  18.938 -95.699  0.00  0.00    +0.174 C 
ATOM     15  O   UNL     1       0.288  19.717 -96.823  0.00  0.00    -0.351 OA
ENDBRANCH  13  15
ENDBRANCH  11  13
ENDBRANCH  10  11
ENDBRANCH   7  10
ENDBRANCH   5   8
ENDBRANCH   1   5
BRANCH   3  16
ATOM     16  C   UNL     1      -2.875  16.345 -96.476  0.00  0.00    +0.099 C 
BRANCH  16  17
ATOM     17  C   UNL     1      -1.940  16.670 -97.555  0.00  0.00    +0.000 A 
ATOM     18  C   UNL     1      -2.252  17.728 -98.384  0.00  0.00    +0.055 A 
ATOM     19  C   UNL     1      -1.373  18.033 -99.400  0.00  0.00    +0.225 A 
ATOM     20  N   UNL     1      -0.241  17.303 -99.565  0.00  0.00    -0.210 NA
ATOM     21  C   UNL     1       0.045  16.269 -98.741  0.00  0.00    +0.102 A 
ATOM     22  C   UNL     1      -0.801  15.908 -97.693  0.00  0.00    +0.018 A 
BRANCH  19  23
ATOM     23  O   UNL     1      -1.691  19.097-100.231  0.00  0.00    -0.456 OA
ATOM     24  C   UNL     1      -0.817  20.195-100.276  0.00  0.00    +0.254 C 
ENDBRANCH  19  23
ENDBRANCH  16  17
ENDBRANCH   3  16
TORSDOF 9
ENDMDL
MODEL 6
REMARK VINA RESULT:       0.0     17.872     20.418
REMARK  Name = 
REMARK  9 active torsions:
REMARK  status: ('A' for Active; 'I' for Inactive)
REMARK    1  A    between atoms: O_2  and  C_3
REMARK    2  A    between atoms: C_3  and  C_4
REMARK    3  A    between atoms: C_4  and  C_6
REMARK    4  A    between atoms: C_6  and  C_7
REMARK    5  A    between atoms: N_9  and  C_10
REMARK    6  A    between atoms: C_10  and  C_12
REMARK    7  A    between atoms: N_14  and  C_15
REMARK    8  A    between atoms: C_15  and  C_16
REMARK    9  A    between atoms: C_20  and  O_21
REMARK                            x       y       z     vdW  Elec       q    Type
REMARK                         _______ _______ _______ _____ _____    ______ ____
ROOT
ATOM      1  C   UNL     1     -11.487  -3.316 -50.816  0.00  0.00    +0.052 C 
ATOM      2  C   UNL     1     -11.452  -1.823 -50.884  0.00  0.00    +0.075 C 
ATOM      3  N   UNL     1     -11.204  -2.030 -52.286  0.00  0.00    -0.269 NA
ATOM      4  C   UNL     1     -12.132  -3.125 -52.173  0.00  0.00    +0.075 C 
ENDROOT
BRANCH   1   5
ATOM      5  C   UNL     1     -10.068  -3.977 -51.241  0.00  0.00    +0.098 C 
ATOM      6  C   UNL     1      -9.817  -4.854 -49.872  0.00  0.00    +0.024 C 
BRANCH   5   8
ATOM      7  C   UNL     1      -9.817  -5.667 -52.992  0.00  0.00    +0.241 C 
ATOM      8  N   UNL     1     -10.711  -5.219 -51.990  0.00  0.00    -0.207 NA
ATOM      9  O   UNL     1      -8.725  -5.084 -53.151  0.00  0.00    -0.273 OA
BRANCH   7  10
ATOM     10  C   UNL     1     -10.170  -6.822 -53.848  0.00  0.00    +0.089 C 
BRANCH  10  11
ATOM     11  C   UNL     1     -11.531  -6.328 -54.611  0.00  0.00    +0.039 C 
ATOM     12  C   UNL     1     -11.888  -7.814 -55.186  0.00  0.00    +0.003 C 
BRANCH  11  13
ATOM     13  C   UNL     1     -10.747  -5.839 -55.950  0.00  0.00    +0.143 C 
BRANCH  13  15
ATOM     14  C   UNL     1     -12.266  -4.102 -55.806  0.00  0.00    +0.174 C 
ATOM     15  O   UNL     1     -11.020  -4.529 -56.173  0.00  0.00    -0.351 OA
ENDBRANCH  13  15
ENDBRANCH  11  13
ENDBRANCH  10  11
ENDBRANCH   7  10
ENDBRANCH   5   8
ENDBRANCH   1   5
BRANCH   3  16
ATOM     16  C   UNL     1     -11.418  -1.000 -53.195  0.00  0.00    +0.099 C 
BRANCH  16  17
ATOM     17  C   UNL     1     -10.626  -1.130 -54.420  0.00  0.00    +0.000 A 
ATOM     18  C   UNL     1      -9.459  -1.863 -54.360  0.00  0.00    +0.055 A 
ATOM     19  C   UNL     1      -8.712  -1.983 -55.512  0.00  0.00    +0.225 A 
ATOM     20  N   UNL     1      -9.129  -1.389 -56.659  0.00  0.00    -0.210 NA
ATOM     21  C   UNL     1     -10.276  -0.675 -56.695  0.00  0.00    +0.102 A 
ATOM     22  C   UNL     1     -11.078  -0.514 -55.566  0.00  0.00    +0.018 A 
BRANCH  19  23
ATOM     23  O   UNL     1      -7.540  -2.720 -55.447  0.00  0.00    -0.456 OA
ATOM     24  C   UNL     1      -7.424  -3.864 -56.252  0.00  0.00    +0.254 C 
ENDBRANCH  19  23
ENDBRANCH  16  17
ENDBRANCH   3  16
TORSDOF 9
ENDMDL
MODEL 7
REMARK VINA RESULT:       0.0      2.638      5.377
REMARK  Name = 
REMARK  9 active torsions:
REMARK  status: ('A' for Active; 'I' for Inactive)
REMARK    1  A    between atoms: O_2  and  C_3
REMARK    2  A    between atoms: C_3  and  C_4
REMARK    3  A    between atoms: C_4  and  C_6
REMARK    4  A    between atoms: C_6  and  C_7
REMARK    5  A    between atoms: N_9  and  C_10
REMARK    6  A    between atoms: C_10  and  C_12
REMARK    7  A    between atoms: N_14  and  C_15
REMARK    8  A    between atoms: C_15  and  C_16
REMARK    9  A    between atoms: C_20  and  O_21
REMARK                            x       y       z     vdW  Elec       q    Type
REMARK                         _______ _______ _______ _____ _____    ______ ____
ROOT
ATOM      1  C   UNL     1       9.376 -12.839 -57.488  0.00  0.00    +0.052 C 
ATOM      2  C   UNL     1       8.667 -13.853 -56.650  0.00  0.00    +0.075 C 
ATOM      3  N   UNL     1       7.471 -13.252 -57.180  0.00  0.00    -0.269 NA
ATOM      4  C   UNL     1       8.211 -13.136 -58.410  0.00  0.00    +0.075 C 
ENDROOT
BRANCH   1   5
ATOM      5  C   UNL     1       9.027 -11.321 -57.032  0.00  0.00    +0.098 C 
ATOM      6  C   UNL     1      10.520 -10.915 -56.472  0.00  0.00    +0.024 C 
BRANCH   5   8
ATOM      7  C   UNL     1       8.420  -9.607 -58.667  0.00  0.00    +0.241 C 
ATOM      8  N   UNL     1       9.319 -10.678 -58.452  0.00  0.00    -0.207 NA
ATOM      9  O   UNL     1       7.578  -9.321 -57.790  0.00  0.00    -0.273 OA
BRANCH   7  10
ATOM     10  C   UNL     1       8.471  -8.826 -59.923  0.00  0.00    +0.089 C 
BRANCH  10  11
ATOM     11  C   UNL     1       8.473  -9.976 -61.088  0.00  0.00    +0.039 C 
ATOM     12  C   UNL     1       8.746  -8.916 -62.299  0.00  0.00    +0.003 C 
BRANCH  11  13
ATOM     13  C   UNL     1       6.855  -9.975 -61.258  0.00  0.00    +0.143 C 
BRANCH  13  15
ATOM     14  C   UNL     1       5.379 -11.314 -60.083  0.00  0.00    +0.174 C 
ATOM     15  O   UNL     1       6.380 -11.223 -61.010  0.00  0.00    -0.351 OA
ENDBRANCH  13  15
ENDBRANCH  11  13
ENDBRANCH  10  11
ENDBRANCH   7  10
ENDBRANCH   5   8
ENDBRANCH   1   5
BRANCH   3  16
ATOM     16  C   UNL     1       6.262 -13.938 -57.133  0.00  0.00    +0.099 C 
BRANCH  16  17
ATOM     17  C   UNL     1       5.120 -13.085 -56.801  0.00  0.00    +0.000 A 
ATOM     18  C   UNL     1       5.378 -11.810 -56.340  0.00  0.00    +0.055 A 
ATOM     19  C   UNL     1       4.303 -11.007 -56.026  0.00  0.00    +0.225 A 
ATOM     20  N   UNL     1       3.038 -11.475 -56.171  0.00  0.00    -0.210 NA
ATOM     21  C   UNL     1       2.807 -12.728 -56.624  0.00  0.00    +0.102 A 
ATOM     22  C   UNL     1       3.849 -13.592 -56.960  0.00  0.00    +0.018 A 
BRANCH  19  23
ATOM     23  O   UNL     1       4.567  -9.727 -55.563  0.00  0.00    -0.456 OA
ATOM     24  C   UNL     1       5.688  -9.532 -54.740  0.00  0.00    +0.254 C 
ENDBRANCH  19  23
ENDBRANCH  16  17
ENDBRANCH   3  16
TORSDOF 9
ENDMDL
MODEL 8
REMARK VINA RESULT:       0.0     37.408     40.929
REMARK  Name = 
REMARK  9 active torsions:
REMARK  status: ('A' for Active; 'I' for Inactive)
REMARK    1  A    between atoms: O_2  and  C_3
REMARK    2  A    between atoms: C_3  and  C_4
REMARK    3  A    between atoms: C_4  and  C_6
REMARK    4  A    between atoms: C_6  and  C_7
REMARK    5  A    between atoms: N_9  and  C_10
REMARK    6  A    between atoms: C_10  and  C_12
REMARK    7  A    between atoms: N_14  and  C_15
REMARK    8  A    between atoms: C_15  and  C_16
REMARK    9  A    between atoms: C_20  and  O_21
REMARK                            x       y       z     vdW  Elec       q    Type
REMARK                         _______ _______ _______ _____ _____    ______ ____
ROOT
ATOM      1  C   UNL     1     -18.295   4.979 -83.613  0.00  0.00    +0.052 C 
ATOM      2  C   UNL     1     -19.654   4.412 -83.870  0.00  0.00    +0.075 C 
ATOM      3  N   UNL     1     -18.938   3.367 -84.552  0.00  0.00    -0.269 NA
ATOM      4  C   UNL     1     -17.962   3.505 -83.502  0.00  0.00    +0.075 C 
ENDROOT
BRANCH   1   5
ATOM      5  C   UNL     1     -17.527   5.364 -84.989  0.00  0.00    +0.098 C 
ATOM      6  C   UNL     1     -17.504   6.995 -84.776  0.00  0.00    +0.024 C 
BRANCH   5   8
ATOM      7  C   UNL     1     -15.206   4.699 -85.386  0.00  0.00    +0.241 C 
ATOM      8  N   UNL     1     -16.069   5.206 -84.384  0.00  0.00    -0.207 NA
ATOM      9  O   UNL     1     -15.657   4.460 -86.526  0.00  0.00    -0.273 OA
BRANCH   7  10
ATOM     10  C   UNL     1     -13.778   4.453 -85.090  0.00  0.00    +0.089 C 
BRANCH  10  11
ATOM     11  C   UNL     1     -13.818   3.612 -83.686  0.00  0.00    +0.039 C 
ATOM     12  C   UNL     1     -12.203   3.681 -83.461  0.00  0.00    +0.003 C 
BRANCH  11  13
ATOM     13  C   UNL     1     -13.801   2.159 -84.416  0.00  0.00    +0.143 C 
BRANCH  13  15
ATOM     14  C   UNL     1     -15.667   0.982 -85.110  0.00  0.00    +0.174 C 
ATOM     15  O   UNL     1     -14.922   1.474 -84.074  0.00  0.00    -0.351 OA
ENDBRANCH  13  15
ENDBRANCH  11  13
ENDBRANCH  10  11
ENDBRANCH   7  10
ENDBRANCH   5   8
ENDBRANCH   1   5
BRANCH   3  16
ATOM     16  C   UNL     1     -19.552   2.144 -84.802  0.00  0.00    +0.099 C 
BRANCH  16  17
ATOM     17  C   UNL     1     -19.205   1.573 -86.104  0.00  0.00    +0.000 A 
ATOM     18  C   UNL     1     -18.604   2.398 -87.033  0.00  0.00    +0.055 A 
ATOM     19  C   UNL     1     -18.279   1.862 -88.259  0.00  0.00    +0.225 A 
ATOM     20  N   UNL     1     -18.551   0.559 -88.527  0.00  0.00    -0.210 NA
ATOM     21  C   UNL     1     -19.141  -0.232 -87.603  0.00  0.00    +0.102 A 
ATOM     22  C   UNL     1     -19.495   0.248 -86.342  0.00  0.00    +0.018 A 
BRANCH  19  23
ATOM     23  O   UNL     1     -17.675   2.695 -89.188  0.00  0.00    -0.456 OA
ATOM     24  C   UNL     1     -18.023   4.055 -89.193  0.00  0.00    +0.254 C 
ENDBRANCH  19  23
ENDBRANCH  16  17
ENDBRANCH   3  16
TORSDOF 9
ENDMDL
MODEL 9
REMARK VINA RESULT:       0.0     58.894     61.707
REMARK  Name = 
REMARK  9 active torsions:
REMARK  status: ('A' for Active; 'I' for Inactive)
REMARK    1  A    between atoms: O_2  and  C_3
REMARK    2  A    between atoms: C_3  and  C_4
REMARK    3  A    between atoms: C_4  and  C_6
REMARK    4  A    between atoms: C_6  and  C_7
REMARK    5  A    between atoms: N_9  and  C_10
REMARK    6  A    between atoms: C_10  and  C_12
REMARK    7  A    between atoms: N_14  and  C_15
REMARK    8  A    between atoms: C_15  and  C_16
REMARK    9  A    between atoms: C_20  and  O_21
REMARK                            x       y       z     vdW  Elec       q    Type
REMARK                         _______ _______ _______ _____ _____    ______ ____
ROOT
ATOM      1  C   UNL     1     -12.008  32.035 -93.112  0.00  0.00    +0.052 C 
ATOM      2  C   UNL     1     -10.563  31.654 -93.143  0.00  0.00    +0.075 C 
ATOM      3  N   UNL     1     -10.841  31.248 -94.495  0.00  0.00    -0.269 NA
ATOM      4  C   UNL     1     -11.695  32.407 -94.547  0.00  0.00    +0.075 C 
ENDROOT
BRANCH   1   5
ATOM      5  C   UNL     1     -12.980  30.755 -93.332  0.00  0.00    +0.098 C 
ATOM      6  C   UNL     1     -13.650  30.730 -91.830  0.00  0.00    +0.024 C 
BRANCH   5   8
ATOM      7  C   UNL     1     -14.851  30.823 -94.905  0.00  0.00    +0.241 C 
ATOM      8  N   UNL     1     -14.188  31.596 -93.922  0.00  0.00    -0.207 NA
ATOM      9  O   UNL     1     -14.442  29.673 -95.167  0.00  0.00    -0.273 OA
BRANCH   7  10
ATOM     10  C   UNL     1     -16.024  31.371 -95.623  0.00  0.00    +0.089 C 
BRANCH  10  11
ATOM     11  C   UNL     1     -15.521  32.853 -96.101  0.00  0.00    +0.039 C 
ATOM     12  C   UNL     1     -16.994  33.310 -96.637  0.00  0.00    +0.003 C 
BRANCH  11  13
ATOM     13  C   UNL     1     -14.993  32.338 -97.551  0.00  0.00    +0.143 C 
BRANCH  13  15
ATOM     14  C   UNL     1     -12.867  31.557 -98.017  0.00  0.00    +0.174 C 
ATOM     15  O   UNL     1     -13.668  32.608 -97.664  0.00  0.00    -0.351 OA
ENDBRANCH  13  15
ENDBRANCH  11  13
ENDBRANCH  10  11
ENDBRANCH   7  10
ENDBRANCH   5   8
ENDBRANCH   1   5
BRANCH   3  16
ATOM     16  C   UNL     1      -9.802  31.084 -95.404  0.00  0.00    +0.099 C 
BRANCH  16  17
ATOM     17  C   UNL     1      -9.987  29.940 -96.300  0.00  0.00    +0.000 A 
ATOM     18  C   UNL     1     -10.947  29.007 -95.967  0.00  0.00    +0.055 A 
ATOM     19  C   UNL     1     -11.120  27.930 -96.808  0.00  0.00    +0.225 A 
ATOM     20  N   UNL     1     -10.358  27.808 -97.925  0.00  0.00    -0.210 NA
ATOM     21  C   UNL     1      -9.422  28.734 -98.232  0.00  0.00    +0.102 A 
ATOM     22  C   UNL     1      -9.197  29.847 -97.424  0.00  0.00    +0.018 A 
BRANCH  19  23
ATOM     23  O   UNL     1     -12.086  26.995 -96.469  0.00  0.00    -0.456 OA
ATOM     24  C   UNL     1     -12.342  26.761 -95.109  0.00  0.00    +0.254 C 
ENDBRANCH  19  23
ENDBRANCH  16  17
ENDBRANCH   3  16
TORSDOF 9
ENDMDL
MODEL 10
REMARK VINA RESULT:       0.0     39.832     41.926
REMARK  Name = 
REMARK  9 active torsions:
REMARK  status: ('A' for Active; 'I' for Inactive)
REMARK    1  A    between atoms: O_2  and  C_3
REMARK    2  A    between atoms: C_3  and  C_4
REMARK    3  A    between atoms: C_4  and  C_6
REMARK    4  A    between atoms: C_6  and  C_7
REMARK    5  A    between atoms: N_9  and  C_10
REMARK    6  A    between atoms: C_10  and  C_12
REMARK    7  A    between atoms: N_14  and  C_15
REMARK    8  A    between atoms: C_15  and  C_16
REMARK    9  A    between atoms: C_20  and  O_21
REMARK                            x       y       z     vdW  Elec       q    Type
REMARK                         _______ _______ _______ _____ _____    ______ ____
ROOT
ATOM      1  C   UNL     1       9.190  14.303 -85.372  0.00  0.00    +0.052 C 
ATOM      2  C   UNL     1      10.211  13.399 -85.984  0.00  0.00    +0.075 C 
ATOM      3  N   UNL     1      11.104  14.514 -85.807  0.00  0.00    -0.269 NA
ATOM      4  C   UNL     1      10.401  14.734 -84.569  0.00  0.00    +0.075 C 
ENDROOT
BRANCH   1   5
ATOM      5  C   UNL     1       8.932  15.627 -86.273  0.00  0.00    +0.098 C 
ATOM      6  C   UNL     1       7.382  15.292 -86.711  0.00  0.00    +0.024 C 
BRANCH   5   8
ATOM      7  C   UNL     1       8.888  17.861 -85.279  0.00  0.00    +0.241 C 
ATOM      8  N   UNL     1       8.457  16.531 -85.060  0.00  0.00    -0.207 NA
ATOM      9  O   UNL     1       9.533  18.139 -86.312  0.00  0.00    -0.273 OA
BRANCH   7  10
ATOM     10  C   UNL     1       8.579  18.921 -84.294  0.00  0.00    +0.089 C 
BRANCH  10  11
ATOM     11  C   UNL     1       9.049  18.267 -82.869  0.00  0.00    +0.039 C 
ATOM     12  C   UNL     1       8.430  19.482 -81.972  0.00  0.00    +0.003 C 
BRANCH  11  13
ATOM     13  C   UNL     1      10.550  18.890 -82.941  0.00  0.00    +0.143 C 
BRANCH  13  15
ATOM     14  C   UNL     1      12.389  17.866 -83.898  0.00  0.00    +0.174 C 
ATOM     15  O   UNL     1      11.455  17.879 -82.900  0.00  0.00    -0.351 OA
ENDBRANCH  13  15
ENDBRANCH  11  13
ENDBRANCH  10  11
ENDBRANCH   7  10
ENDBRANCH   5   8
ENDBRANCH   1   5
BRANCH   3  16
ATOM     16  C   UNL     1      12.480  14.319 -85.824  0.00  0.00    +0.099 C 
BRANCH  16  17
ATOM     17  C   UNL     1      13.209  15.369 -86.538  0.00  0.00    +0.000 A 
ATOM     18  C   UNL     1      12.480  16.253 -87.307  0.00  0.00    +0.055 A 
ATOM     19  C   UNL     1      13.165  17.240 -87.981  0.00  0.00    +0.225 A 
ATOM     20  N   UNL     1      14.517  17.322 -87.880  0.00  0.00    -0.210 NA
ATOM     21  C   UNL     1      15.211  16.444 -87.122  0.00  0.00    +0.102 A 
ATOM     22  C   UNL     1      14.580  15.423 -86.414  0.00  0.00    +0.018 A 
BRANCH  19  23
ATOM     23  O   UNL     1      12.429  18.126 -88.751  0.00  0.00    -0.456 OA
ATOM     24  C   UNL     1      11.284  17.649 -89.409  0.00  0.00    +0.254 C 
ENDBRANCH  19  23
ENDBRANCH  16  17
ENDBRANCH   3  16
TORSDOF 9
ENDMDL
