MODEL 1
REMARK VINA RESULT:      -6.0      0.000      0.000
REMARK  Name = 
REMARK  9 active torsions:
REMARK  status: ('A' for Active; 'I' for Inactive)
REMARK    1  A    between atoms: O_2  and  C_3
REMARK    2  A    between atoms: C_3  and  C_4
REMARK    3  A    between atoms: C_4  and  C_6
REMARK    4  A    between atoms: C_6  and  C_7
REMARK    5  A    between atoms: N_9  and  C_10
REMARK    6  A    between atoms: C_10  and  C_12
REMARK    7  A    between atoms: N_14  and  C_15
REMARK    8  A    between atoms: C_15  and  C_16
REMARK    9  A    between atoms: C_20  and  O_21
REMARK                            x       y       z     vdW  Elec       q    Type
REMARK                         _______ _______ _______ _____ _____    ______ ____
ROOT
ATOM     12  C   UNL     1      -0.904  38.260 -52.987  0.00  0.00    +0.000 C 
ATOM     13  C   UNL     1       0.104  38.948 -53.885  0.00  0.00    +0.000 C 
ATOM     14  N   UNL     1      -0.219  37.884 -54.799  0.00  0.00    +0.000 NA
ATOM     24  C   UNL     1      -0.297  37.053 -53.627  0.00  0.00    +0.000 C 
ENDROOT
BRANCH  12  10
ATOM     10  C   UNL     1      -2.295  38.692 -53.700  0.00  0.00    +0.000 C 
ATOM     11  C   UNL     1      -3.237  37.494 -53.083  0.00  0.00    +0.000 C 
BRANCH  10   9
ATOM      7  C   UNL     1      -3.177  40.908 -53.154  0.00  0.00    +0.000 C 
ATOM      8  O   UNL     1      -3.177  41.019 -54.398  0.00  0.00    +0.000 OA
ATOM      9  N   UNL     1      -2.729  39.704 -52.559  0.00  0.00    +0.000 NA
BRANCH   7   6
ATOM      6  C   UNL     1      -3.643  42.032 -52.312  0.00  0.00    +0.000 C 
BRANCH   6   4
ATOM      4  C   UNL     1      -5.134  41.556 -51.832  0.00  0.00    +0.000 C 
ATOM      5  C   UNL     1      -5.842  42.973 -52.227  0.00  0.00    +0.000 C 
BRANCH   4   3
ATOM      3  C   UNL     1      -4.888  41.947 -50.272  0.00  0.00    +0.000 C 
BRANCH   3   2
ATOM      1  C   UNL     1      -4.050  43.655 -48.956  0.00  0.00    +0.000 C 
ATOM      2  O   UNL     1      -4.242  43.140 -50.208  0.00  0.00    +0.000 OA
ENDBRANCH   3   2
ENDBRANCH   4   3
ENDBRANCH   6   4
ENDBRANCH   7   6
ENDBRANCH  10   9
ENDBRANCH  12  10
BRANCH  14  15
ATOM     15  C   UNL     1       0.641  37.548 -55.840  0.00  0.00    +0.000 C 
BRANCH  15  16
ATOM     16  C   UNL     1      -0.042  37.361 -57.122  0.00  0.00    +0.000 A 
ATOM     17  C   UNL     1       0.489  36.469 -58.028  0.00  0.00    +0.000 A 
ATOM     18  C   UNL     1      -0.211  36.337 -59.227  0.00  0.00    +0.000 A 
ATOM     19  N   UNL     1      -1.337  37.042 -59.476  0.00  0.00    +0.000 NA
ATOM     20  C   UNL     1      -1.833  37.912 -58.561  0.00  0.00    +0.000 A 
ATOM     23  C   UNL     1      -1.190  38.089 -57.355  0.00  0.00    +0.000 A 
BRANCH  20  21
ATOM     21  O   UNL     1      -2.986  38.646 -58.791  0.00  0.00    +0.000 OA
ATOM     22  C   UNL     1      -3.418  39.542 -57.799  0.00  0.00    +0.000 C 
ENDBRANCH  20  21
ENDBRANCH  15  16
ENDBRANCH  14  15
TORSDOF 9
ENDMDL
MODEL 2
REMARK VINA RESULT:      -5.9      3.146      4.418
REMARK  Name = 
REMARK  9 active torsions:
REMARK  status: ('A' for Active; 'I' for Inactive)
REMARK    1  A    between atoms: O_2  and  C_3
REMARK    2  A    between atoms: C_3  and  C_4
REMARK    3  A    between atoms: C_4  and  C_6
REMARK    4  A    between atoms: C_6  and  C_7
REMARK    5  A    between atoms: N_9  and  C_10
REMARK    6  A    between atoms: C_10  and  C_12
REMARK    7  A    between atoms: N_14  and  C_15
REMARK    8  A    between atoms: C_15  and  C_16
REMARK    9  A    between atoms: C_20  and  O_21
REMARK                            x       y       z     vdW  Elec       q    Type
REMARK                         _______ _______ _______ _____ _____    ______ ____
ROOT
ATOM     12  C   UNL     1      -3.797  40.063 -52.066  0.00  0.00    +0.000 C 
ATOM     13  C   UNL     1      -3.548  41.242 -52.983  0.00  0.00    +0.000 C 
ATOM     14  N   UNL     1      -2.989  40.244 -53.857  0.00  0.00    +0.000 NA
ATOM     24  C   UNL     1      -2.493  39.631 -52.653  0.00  0.00    +0.000 C 
ENDROOT
BRANCH  12  10
ATOM     10  C   UNL     1      -5.059  39.361 -52.805  0.00  0.00    +0.000 C 
ATOM     11  C   UNL     1      -5.414  38.262 -51.634  0.00  0.00    +0.000 C 
BRANCH  10   9
ATOM      7  C   UNL     1      -7.172  40.527 -53.204  0.00  0.00    +0.000 C 
ATOM      8  O   UNL     1      -7.123  39.882 -54.271  0.00  0.00    +0.000 OA
ATOM      9  N   UNL     1      -6.134  40.387 -52.252  0.00  0.00    +0.000 NA
BRANCH   7   6
ATOM      6  C   UNL     1      -8.313  41.432 -52.940  0.00  0.00    +0.000 C 
BRANCH   6   4
ATOM      4  C   UNL     1      -8.984  41.641 -54.418  0.00  0.00    +0.000 C 
ATOM      5  C   UNL     1      -9.240  43.239 -54.207  0.00  0.00    +0.000 C 
BRANCH   4   3
ATOM      3  C   UNL     1     -10.472  41.191 -53.938  0.00  0.00    +0.000 C 
BRANCH   3   2
ATOM      1  C   UNL     1     -11.847  41.277 -52.081  0.00  0.00    +0.000 C 
ATOM      2  O   UNL     1     -10.587  41.386 -52.600  0.00  0.00    +0.000 OA
ENDBRANCH   3   2
ENDBRANCH   4   3
ENDBRANCH   6   4
ENDBRANCH   7   6
ENDBRANCH  10   9
ENDBRANCH  12  10
BRANCH  14  15
ATOM     15  C   UNL     1      -2.112  40.595 -54.877  0.00  0.00    +0.000 C 
BRANCH  15  16
ATOM     16  C   UNL     1      -2.395  39.923 -56.147  0.00  0.00    +0.000 A 
ATOM     17  C   UNL     1      -3.437  40.385 -56.920  0.00  0.00    +0.000 A 
ATOM     18  C   UNL     1      -3.652  39.702 -58.117  0.00  0.00    +0.000 A 
ATOM     19  N   UNL     1      -2.881  38.655 -58.488  0.00  0.00    +0.000 NA
ATOM     20  C   UNL     1      -1.861  38.225 -57.702  0.00  0.00    +0.000 A 
ATOM     23  C   UNL     1      -1.596  38.857 -56.507  0.00  0.00    +0.000 A 
BRANCH  20  21
ATOM     21  O   UNL     1      -1.056  37.155 -58.059  0.00  0.00    +0.000 OA
ATOM     22  C   UNL     1      -0.580  37.087 -59.378  0.00  0.00    +0.000 C 
ENDBRANCH  20  21
ENDBRANCH  15  16
ENDBRANCH  14  15
TORSDOF 9
ENDMDL
MODEL 3
REMARK VINA RESULT:      -5.8      2.156      4.448
REMARK  Name = 
REMARK  9 active torsions:
REMARK  status: ('A' for Active; 'I' for Inactive)
REMARK    1  A    between atoms: O_2  and  C_3
REMARK    2  A    between atoms: C_3  and  C_4
REMARK    3  A    between atoms: C_4  and  C_6
REMARK    4  A    between atoms: C_6  and  C_7
REMARK    5  A    between atoms: N_9  and  C_10
REMARK    6  A    between atoms: C_10  and  C_12
REMARK    7  A    between atoms: N_14  and  C_15
REMARK    8  A    between atoms: C_15  and  C_16
REMARK    9  A    between atoms: C_20  and  O_21
REMARK                            x       y       z     vdW  Elec       q    Type
REMARK                         _______ _______ _______ _____ _____    ______ ____
ROOT
ATOM     12  C   UNL     1      -2.323  38.027 -58.445  0.00  0.00    +0.000 C 
ATOM     13  C   UNL     1      -1.780  36.893 -57.600  0.00  0.00    +0.000 C 
ATOM     14  N   UNL     1      -0.511  37.533 -57.837  0.00  0.00    +0.000 NA
ATOM     24  C   UNL     1      -1.025  37.807 -59.153  0.00  0.00    +0.000 C 
ENDROOT
BRANCH  12  10
ATOM     10  C   UNL     1      -2.242  39.260 -57.394  0.00  0.00    +0.000 C 
ATOM     11  C   UNL     1      -3.578  40.071 -57.907  0.00  0.00    +0.000 C 
BRANCH  10   9
ATOM      7  C   UNL     1      -2.733  39.108 -55.002  0.00  0.00    +0.000 C 
ATOM      8  O   UNL     1      -1.918  40.053 -54.956  0.00  0.00    +0.000 OA
ATOM      9  N   UNL     1      -3.056  38.522 -56.250  0.00  0.00    +0.000 NA
BRANCH   7   6
ATOM      6  C   UNL     1      -3.355  38.607 -53.756  0.00  0.00    +0.000 C 
BRANCH   6   4
ATOM      4  C   UNL     1      -3.387  39.927 -52.789  0.00  0.00    +0.000 C 
ATOM      5  C   UNL     1      -2.505  39.228 -51.607  0.00  0.00    +0.000 C 
BRANCH   4   3
ATOM      3  C   UNL     1      -4.829  39.557 -52.132  0.00  0.00    +0.000 C 
BRANCH   3   2
ATOM      1  C   UNL     1      -5.313  41.759 -52.648  0.00  0.00    +0.000 C 
ATOM      2  O   UNL     1      -5.471  40.704 -51.793  0.00  0.00    +0.000 OA
ENDBRANCH   3   2
ENDBRANCH   4   3
ENDBRANCH   6   4
ENDBRANCH   7   6
ENDBRANCH  10   9
ENDBRANCH  12  10
BRANCH  14  15
ATOM     15  C   UNL     1       0.682  36.836 -57.682  0.00  0.00    +0.000 C 
BRANCH  15  16
ATOM     16  C   UNL     1       1.408  37.189 -56.460  0.00  0.00    +0.000 A 
ATOM     17  C   UNL     1       2.776  37.032 -56.437  0.00  0.00    +0.000 A 
ATOM     18  C   UNL     1       3.405  37.388 -55.244  0.00  0.00    +0.000 A 
ATOM     19  N   UNL     1       2.710  37.856 -54.183  0.00  0.00    +0.000 NA
ATOM     20  C   UNL     1       1.361  37.998 -54.240  0.00  0.00    +0.000 A 
ATOM     23  C   UNL     1       0.679  37.665 -55.390  0.00  0.00    +0.000 A 
BRANCH  20  21
ATOM     21  O   UNL     1       0.624  38.477 -53.168  0.00  0.00    +0.000 OA
ATOM     22  C   UNL     1       1.302  38.799 -51.982  0.00  0.00    +0.000 C 
ENDBRANCH  20  21
ENDBRANCH  15  16
ENDBRANCH  14  15
TORSDOF 9
ENDMDL
MODEL 4
REMARK VINA RESULT:      -5.7      3.092      7.706
REMARK  Name = 
REMARK  9 active torsions:
REMARK  status: ('A' for Active; 'I' for Inactive)
REMARK    1  A    between atoms: O_2  and  C_3
REMARK    2  A    between atoms: C_3  and  C_4
REMARK    3  A    between atoms: C_4  and  C_6
REMARK    4  A    between atoms: C_6  and  C_7
REMARK    5  A    between atoms: N_9  and  C_10
REMARK    6  A    between atoms: C_10  and  C_12
REMARK    7  A    between atoms: N_14  and  C_15
REMARK    8  A    between atoms: C_15  and  C_16
REMARK    9  A    between atoms: C_20  and  O_21
REMARK                            x       y       z     vdW  Elec       q    Type
REMARK                         _______ _______ _______ _____ _____    ______ ____
ROOT
ATOM     12  C   UNL     1      -2.460  40.028 -53.209  0.00  0.00    +0.000 C 
ATOM     13  C   UNL     1      -2.590  38.952 -52.151  0.00  0.00    +0.000 C 
ATOM     14  N   UNL     1      -3.938  39.447 -52.037  0.00  0.00    +0.000 NA
ATOM     24  C   UNL     1      -3.358  40.746 -52.254  0.00  0.00    +0.000 C 
ENDROOT
BRANCH  12  10
ATOM     10  C   UNL     1      -3.287  39.357 -54.433  0.00  0.00    +0.000 C 
ATOM     11  C   UNL     1      -3.362  40.685 -55.400  0.00  0.00    +0.000 C 
BRANCH  10   9
ATOM      7  C   UNL     1      -2.296  37.538 -55.735  0.00  0.00    +0.000 C 
ATOM      8  O   UNL     1      -3.433  37.044 -55.577  0.00  0.00    +0.000 OA
ATOM      9  N   UNL     1      -2.002  38.809 -55.185  0.00  0.00    +0.000 NA
BRANCH   7   6
ATOM      6  C   UNL     1      -1.267  36.793 -56.494  0.00  0.00    +0.000 C 
BRANCH   6   4
ATOM      4  C   UNL     1      -1.015  37.729 -57.813  0.00  0.00    +0.000 C 
ATOM      5  C   UNL     1      -1.499  36.579 -58.866  0.00  0.00    +0.000 C 
BRANCH   4   3
ATOM      3  C   UNL     1       0.567  37.364 -57.918  0.00  0.00    +0.000 C 
BRANCH   3   2
ATOM      1  C   UNL     1       2.380  37.765 -56.539  0.00  0.00    +0.000 C 
ATOM      2  O   UNL     1       1.096  37.312 -56.669  0.00  0.00    +0.000 OA
ENDBRANCH   3   2
ENDBRANCH   4   3
ENDBRANCH   6   4
ENDBRANCH   7   6
ENDBRANCH  10   9
ENDBRANCH  12  10
BRANCH  14  15
ATOM     15  C   UNL     1      -4.698  39.201 -50.899  0.00  0.00    +0.000 C 
BRANCH  15  16
ATOM     16  C   UNL     1      -6.088  38.848 -51.192  0.00  0.00    +0.000 A 
ATOM     17  C   UNL     1      -6.731  37.953 -50.365  0.00  0.00    +0.000 A 
ATOM     18  C   UNL     1      -8.053  37.663 -50.698  0.00  0.00    +0.000 A 
ATOM     19  N   UNL     1      -8.659  38.228 -51.767  0.00  0.00    +0.000 NA
ATOM     20  C   UNL     1      -7.997  39.106 -52.562  0.00  0.00    +0.000 A 
ATOM     23  C   UNL     1      -6.688  39.437 -52.287  0.00  0.00    +0.000 A 
BRANCH  20  21
ATOM     21  O   UNL     1      -8.595  39.701 -53.662  0.00  0.00    +0.000 OA
ATOM     22  C   UNL     1      -8.555  41.100 -53.771  0.00  0.00    +0.000 C 
ENDBRANCH  20  21
ENDBRANCH  15  16
ENDBRANCH  14  15
TORSDOF 9
ENDMDL
MODEL 5
REMARK VINA RESULT:      -5.7     28.591     31.246
REMARK  Name = 
REMARK  9 active torsions:
REMARK  status: ('A' for Active; 'I' for Inactive)
REMARK    1  A    between atoms: O_2  and  C_3
REMARK    2  A    between atoms: C_3  and  C_4
REMARK    3  A    between atoms: C_4  and  C_6
REMARK    4  A    between atoms: C_6  and  C_7
REMARK    5  A    between atoms: N_9  and  C_10
REMARK    6  A    between atoms: C_10  and  C_12
REMARK    7  A    between atoms: N_14  and  C_15
REMARK    8  A    between atoms: C_15  and  C_16
REMARK    9  A    between atoms: C_20  and  O_21
REMARK                            x       y       z     vdW  Elec       q    Type
REMARK                         _______ _______ _______ _____ _____    ______ ____
ROOT
ATOM     12  C   UNL     1     -19.117  33.039 -76.915  0.00  0.00    +0.000 C 
ATOM     13  C   UNL     1     -18.510  33.981 -77.935  0.00  0.00    +0.000 C 
ATOM     14  N   UNL     1     -17.486  32.973 -78.024  0.00  0.00    +0.000 NA
ATOM     24  C   UNL     1     -17.671  32.821 -76.605  0.00  0.00    +0.000 C 
ENDROOT
BRANCH  12  10
ATOM     10  C   UNL     1     -19.713  31.882 -77.883  0.00  0.00    +0.000 C 
ATOM     11  C   UNL     1     -20.005  30.755 -76.721  0.00  0.00    +0.000 C 
BRANCH  10   9
ATOM      7  C   UNL     1     -21.729  32.454 -79.144  0.00  0.00    +0.000 C 
ATOM      8  O   UNL     1     -21.014  32.101 -80.105  0.00  0.00    +0.000 OA
ATOM      9  N   UNL     1     -21.207  32.411 -77.829  0.00  0.00    +0.000 NA
BRANCH   7   6
ATOM      6  C   UNL     1     -23.115  32.915 -79.385  0.00  0.00    +0.000 C 
BRANCH   6   4
ATOM      4  C   UNL     1     -23.792  31.672 -80.208  0.00  0.00    +0.000 C 
ATOM      5  C   UNL     1     -25.144  32.505 -80.586  0.00  0.00    +0.000 C 
BRANCH   4   3
ATOM      3  C   UNL     1     -24.418  30.976 -78.877  0.00  0.00    +0.000 C 
BRANCH   3   2
ATOM      1  C   UNL     1     -25.772  29.116 -79.120  0.00  0.00    +0.000 C 
ATOM      2  O   UNL     1     -24.508  29.636 -79.076  0.00  0.00    +0.000 OA
ENDBRANCH   3   2
ENDBRANCH   4   3
ENDBRANCH   6   4
ENDBRANCH   7   6
ENDBRANCH  10   9
ENDBRANCH  12  10
BRANCH  14  15
ATOM     15  C   UNL     1     -16.229  33.273 -78.538  0.00  0.00    +0.000 C 
BRANCH  15  16
ATOM     16  C   UNL     1     -15.738  32.280 -79.495  0.00  0.00    +0.000 A 
ATOM     17  C   UNL     1     -14.766  32.654 -80.396  0.00  0.00    +0.000 A 
ATOM     18  C   UNL     1     -14.342  31.660 -81.277  0.00  0.00    +0.000 A 
ATOM     19  N   UNL     1     -14.857  30.411 -81.243  0.00  0.00    +0.000 NA
ATOM     20  C   UNL     1     -15.814  30.074 -80.342  0.00  0.00    +0.000 A 
ATOM     23  C   UNL     1     -16.277  31.010 -79.442  0.00  0.00    +0.000 A 
BRANCH  20  21
ATOM     21  O   UNL     1     -16.358  28.801 -80.284  0.00  0.00    +0.000 OA
ATOM     22  C   UNL     1     -15.489  27.708 -80.140  0.00  0.00    +0.000 C 
ENDBRANCH  20  21
ENDBRANCH  15  16
ENDBRANCH  14  15
TORSDOF 9
ENDMDL
MODEL 6
REMARK VINA RESULT:      -5.6      3.082      5.555
REMARK  Name = 
REMARK  9 active torsions:
REMARK  status: ('A' for Active; 'I' for Inactive)
REMARK    1  A    between atoms: O_2  and  C_3
REMARK    2  A    between atoms: C_3  and  C_4
REMARK    3  A    between atoms: C_4  and  C_6
REMARK    4  A    between atoms: C_6  and  C_7
REMARK    5  A    between atoms: N_9  and  C_10
REMARK    6  A    between atoms: C_10  and  C_12
REMARK    7  A    between atoms: N_14  and  C_15
REMARK    8  A    between atoms: C_15  and  C_16
REMARK    9  A    between atoms: C_20  and  O_21
REMARK                            x       y       z     vdW  Elec       q    Type
REMARK                         _______ _______ _______ _____ _____    ______ ____
ROOT
ATOM     12  C   UNL     1      -2.356  37.612 -58.342  0.00  0.00    +0.000 C 
ATOM     13  C   UNL     1      -1.965  36.456 -57.445  0.00  0.00    +0.000 C 
ATOM     14  N   UNL     1      -0.638  36.731 -57.934  0.00  0.00    +0.000 NA
ATOM     24  C   UNL     1      -1.282  37.011 -59.190  0.00  0.00    +0.000 C 
ENDROOT
BRANCH  12  10
ATOM     10  C   UNL     1      -1.814  38.871 -57.475  0.00  0.00    +0.000 C 
ATOM     11  C   UNL     1      -2.772  40.027 -58.147  0.00  0.00    +0.000 C 
BRANCH  10   9
ATOM      7  C   UNL     1      -2.342  39.354 -55.136  0.00  0.00    +0.000 C 
ATOM      8  O   UNL     1      -1.278  40.004 -55.215  0.00  0.00    +0.000 OA
ATOM      9  N   UNL     1      -2.821  38.653 -56.269  0.00  0.00    +0.000 NA
BRANCH   7   6
ATOM      6  C   UNL     1      -3.094  39.321 -53.862  0.00  0.00    +0.000 C 
BRANCH   6   4
ATOM      4  C   UNL     1      -3.283  37.722 -53.571  0.00  0.00    +0.000 C 
ATOM      5  C   UNL     1      -4.216  37.952 -52.252  0.00  0.00    +0.000 C 
BRANCH   4   3
ATOM      3  C   UNL     1      -1.890  37.586 -52.741  0.00  0.00    +0.000 C 
BRANCH   3   2
ATOM      1  C   UNL     1      -0.530  36.244 -54.043  0.00  0.00    +0.000 C 
ATOM      2  O   UNL     1      -1.358  36.357 -52.961  0.00  0.00    +0.000 OA
ENDBRANCH   3   2
ENDBRANCH   4   3
ENDBRANCH   6   4
ENDBRANCH   7   6
ENDBRANCH  10   9
ENDBRANCH  12  10
BRANCH  14  15
ATOM     15  C   UNL     1       0.366  35.772 -57.859  0.00  0.00    +0.000 C 
BRANCH  15  16
ATOM     16  C   UNL     1       1.570  36.240 -57.170  0.00  0.00    +0.000 A 
ATOM     17  C   UNL     1       1.678  37.580 -56.867  0.00  0.00    +0.000 A 
ATOM     18  C   UNL     1       2.847  37.959 -56.209  0.00  0.00    +0.000 A 
ATOM     19  N   UNL     1       3.809  37.063 -55.892  0.00  0.00    +0.000 NA
ATOM     20  C   UNL     1       3.671  35.750 -56.205  0.00  0.00    +0.000 A 
ATOM     23  C   UNL     1       2.538  35.309 -56.855  0.00  0.00    +0.000 A 
BRANCH  20  21
ATOM     21  O   UNL     1       4.641  34.811 -55.891  0.00  0.00    +0.000 OA
ATOM     22  C   UNL     1       4.577  33.551 -56.508  0.00  0.00    +0.000 C 
ENDBRANCH  20  21
ENDBRANCH  15  16
ENDBRANCH  14  15
TORSDOF 9
ENDMDL
MODEL 7
REMARK VINA RESULT:      -5.5     33.982     35.474
REMARK  Name = 
REMARK  9 active torsions:
REMARK  status: ('A' for Active; 'I' for Inactive)
REMARK    1  A    between atoms: O_2  and  C_3
REMARK    2  A    between atoms: C_3  and  C_4
REMARK    3  A    between atoms: C_4  and  C_6
REMARK    4  A    between atoms: C_6  and  C_7
REMARK    5  A    between atoms: N_9  and  C_10
REMARK    6  A    between atoms: C_10  and  C_12
REMARK    7  A    between atoms: N_14  and  C_15
REMARK    8  A    between atoms: C_15  and  C_16
REMARK    9  A    between atoms: C_20  and  O_21
REMARK                            x       y       z     vdW  Elec       q    Type
REMARK                         _______ _______ _______ _____ _____    ______ ____
ROOT
ATOM     12  C   UNL     1      -4.544   6.694 -46.014  0.00  0.00    +0.000 C 
ATOM     13  C   UNL     1      -5.789   7.305 -45.404  0.00  0.00    +0.000 C 
ATOM     14  N   UNL     1      -6.399   6.058 -45.789  0.00  0.00    +0.000 NA
ATOM     24  C   UNL     1      -5.563   6.141 -46.958  0.00  0.00    +0.000 C 
ENDROOT
BRANCH  12  10
ATOM     10  C   UNL     1      -4.133   5.624 -44.867  0.00  0.00    +0.000 C 
ATOM     11  C   UNL     1      -2.734   5.096 -45.554  0.00  0.00    +0.000 C 
BRANCH  10   9
ATOM      7  C   UNL     1      -3.691   6.448 -42.607  0.00  0.00    +0.000 C 
ATOM      8  O   UNL     1      -4.479   5.525 -42.309  0.00  0.00    +0.000 OA
ATOM      9  N   UNL     1      -3.362   6.676 -43.965  0.00  0.00    +0.000 NA
BRANCH   7   6
ATOM      6  C   UNL     1      -3.107   7.294 -41.542  0.00  0.00    +0.000 C 
BRANCH   6   4
ATOM      4  C   UNL     1      -3.021   6.285 -40.257  0.00  0.00    +0.000 C 
ATOM      5  C   UNL     1      -4.020   7.186 -39.333  0.00  0.00    +0.000 C 
BRANCH   4   3
ATOM      3  C   UNL     1      -1.653   6.946 -39.677  0.00  0.00    +0.000 C 
BRANCH   3   2
ATOM      1  C   UNL     1      -0.343   8.827 -39.988  0.00  0.00    +0.000 C 
ATOM      2  O   UNL     1      -1.260   7.951 -40.501  0.00  0.00    +0.000 OA
ENDBRANCH   3   2
ENDBRANCH   4   3
ENDBRANCH   6   4
ENDBRANCH   7   6
ENDBRANCH  10   9
ENDBRANCH  12  10
BRANCH  14  15
ATOM     15  C   UNL     1      -7.778   5.946 -45.920  0.00  0.00    +0.000 C 
BRANCH  15  16
ATOM     16  C   UNL     1      -8.464   5.675 -44.655  0.00  0.00    +0.000 A 
ATOM     17  C   UNL     1      -7.943   4.718 -43.813  0.00  0.00    +0.000 A 
ATOM     18  C   UNL     1      -8.643   4.512 -42.625  0.00  0.00    +0.000 A 
ATOM     19  N   UNL     1      -9.760   5.211 -42.325  0.00  0.00    +0.000 NA
ATOM     20  C   UNL     1     -10.247   6.148 -43.178  0.00  0.00    +0.000 A 
ATOM     23  C   UNL     1      -9.603   6.401 -44.369  0.00  0.00    +0.000 A 
BRANCH  20  21
ATOM     21  O   UNL     1     -11.390   6.879 -42.895  0.00  0.00    +0.000 OA
ATOM     22  C   UNL     1     -11.644   8.040 -43.642  0.00  0.00    +0.000 C 
ENDBRANCH  20  21
ENDBRANCH  15  16
ENDBRANCH  14  15
TORSDOF 9
ENDMDL
MODEL 8
REMARK VINA RESULT:      -5.5      4.373      6.197
REMARK  Name = 
REMARK  9 active torsions:
REMARK  status: ('A' for Active; 'I' for Inactive)
REMARK    1  A    between atoms: O_2  and  C_3
REMARK    2  A    between atoms: C_3  and  C_4
REMARK    3  A    between atoms: C_4  and  C_6
REMARK    4  A    between atoms: C_6  and  C_7
REMARK    5  A    between atoms: N_9  and  C_10
REMARK    6  A    between atoms: C_10  and  C_12
REMARK    7  A    between atoms: N_14  and  C_15
REMARK    8  A    between atoms: C_15  and  C_16
REMARK    9  A    between atoms: C_20  and  O_21
REMARK                            x       y       z     vdW  Elec       q    Type
REMARK                         _______ _______ _______ _____ _____    ______ ____
ROOT
ATOM     12  C   UNL     1      -6.306  40.217 -50.294  0.00  0.00    +0.000 C 
ATOM     13  C   UNL     1      -5.876  41.406 -51.129  0.00  0.00    +0.000 C 
ATOM     14  N   UNL     1      -4.746  40.573 -51.449  0.00  0.00    +0.000 NA
ATOM     24  C   UNL     1      -4.829  40.131 -50.082  0.00  0.00    +0.000 C 
ENDROOT
BRANCH  12  10
ATOM     10  C   UNL     1      -6.816  39.199 -51.449  0.00  0.00    +0.000 C 
ATOM     11  C   UNL     1      -7.016  37.873 -50.497  0.00  0.00    +0.000 C 
BRANCH  10   9
ATOM      7  C   UNL     1      -8.866  39.850 -52.613  0.00  0.00    +0.000 C 
ATOM      8  O   UNL     1      -8.124  39.740 -53.611  0.00  0.00    +0.000 OA
ATOM      9  N   UNL     1      -8.346  39.596 -51.321  0.00  0.00    +0.000 NA
BRANCH   7   6
ATOM      6  C   UNL     1     -10.282  40.244 -52.785  0.00  0.00    +0.000 C 
BRANCH   6   4
ATOM      4  C   UNL     1     -11.066  38.812 -52.897  0.00  0.00    +0.000 C 
ATOM      5  C   UNL     1     -12.275  39.411 -53.816  0.00  0.00    +0.000 C 
BRANCH   4   3
ATOM      3  C   UNL     1     -11.854  38.997 -51.485  0.00  0.00    +0.000 C 
BRANCH   3   2
ATOM      1  C   UNL     1     -10.858  36.924 -51.245  0.00  0.00    +0.000 C 
ATOM      2  O   UNL     1     -11.584  37.936 -50.682  0.00  0.00    +0.000 OA
ENDBRANCH   3   2
ENDBRANCH   4   3
ENDBRANCH   6   4
ENDBRANCH   7   6
ENDBRANCH  10   9
ENDBRANCH  12  10
BRANCH  14  15
ATOM     15  C   UNL     1      -3.565  41.123 -51.936  0.00  0.00    +0.000 C 
BRANCH  15  16
ATOM     16  C   UNL     1      -3.082  40.477 -53.158  0.00  0.00    +0.000 A 
ATOM     17  C   UNL     1      -2.061  39.558 -53.059  0.00  0.00    +0.000 A 
ATOM     18  C   UNL     1      -1.650  38.979 -54.259  0.00  0.00    +0.000 A 
ATOM     19  N   UNL     1      -2.223  39.303 -55.440  0.00  0.00    +0.000 NA
ATOM     20  C   UNL     1      -3.228  40.213 -55.502  0.00  0.00    +0.000 A 
ATOM     23  C   UNL     1      -3.681  40.822 -54.352  0.00  0.00    +0.000 A 
BRANCH  20  21
ATOM     21  O   UNL     1      -3.833  40.562 -56.699  0.00  0.00    +0.000 OA
ATOM     22  C   UNL     1      -3.340  40.000 -57.887  0.00  0.00    +0.000 C 
ENDBRANCH  20  21
ENDBRANCH  15  16
ENDBRANCH  14  15
TORSDOF 9
ENDMDL
MODEL 9
REMARK VINA RESULT:      -5.4      3.486      5.946
REMARK  Name = 
REMARK  9 active torsions:
REMARK  status: ('A' for Active; 'I' for Inactive)
REMARK    1  A    between atoms: O_2  and  C_3
REMARK    2  A    between atoms: C_3  and  C_4
REMARK    3  A    between atoms: C_4  and  C_6
REMARK    4  A    between atoms: C_6  and  C_7
REMARK    5  A    between atoms: N_9  and  C_10
REMARK    6  A    between atoms: C_10  and  C_12
REMARK    7  A    between atoms: N_14  and  C_15
REMARK    8  A    between atoms: C_15  and  C_16
REMARK    9  A    between atoms: C_20  and  O_21
REMARK                            x       y       z     vdW  Elec       q    Type
REMARK                         _______ _______ _______ _____ _____    ______ ____
ROOT
ATOM     12  C   UNL     1       0.085  38.886 -53.067  0.00  0.00    +0.000 C 
ATOM     13  C   UNL     1       0.806  38.897 -54.399  0.00  0.00    +0.000 C 
ATOM     14  N   UNL     1       1.309  37.621 -53.958  0.00  0.00    +0.000 NA
ATOM     24  C   UNL     1       1.356  38.219 -52.650  0.00  0.00    +0.000 C 
ENDROOT
BRANCH  12  10
ATOM     10  C   UNL     1      -1.096  37.815 -53.365  0.00  0.00    +0.000 C 
ATOM     11  C   UNL     1      -2.181  38.374 -52.263  0.00  0.00    +0.000 C 
BRANCH  10   9
ATOM      7  C   UNL     1      -2.500  37.788 -55.368  0.00  0.00    +0.000 C 
ATOM      8  O   UNL     1      -2.541  36.568 -55.106  0.00  0.00    +0.000 OA
ATOM      9  N   UNL     1      -1.758  38.658 -54.534  0.00  0.00    +0.000 NA
BRANCH   7   6
ATOM      6  C   UNL     1      -3.225  38.316 -56.545  0.00  0.00    +0.000 C 
BRANCH   6   4
ATOM      4  C   UNL     1      -2.028  38.865 -57.516  0.00  0.00    +0.000 C 
ATOM      5  C   UNL     1      -2.936  40.060 -58.158  0.00  0.00    +0.000 C 
BRANCH   4   3
ATOM      3  C   UNL     1      -2.337  37.796 -58.703  0.00  0.00    +0.000 C 
BRANCH   3   2
ATOM      1  C   UNL     1      -0.063  37.373 -58.687  0.00  0.00    +0.000 C 
ATOM      2  O   UNL     1      -1.337  36.879 -58.748  0.00  0.00    +0.000 OA
ENDBRANCH   3   2
ENDBRANCH   4   3
ENDBRANCH   6   4
ENDBRANCH   7   6
ENDBRANCH  10   9
ENDBRANCH  12  10
BRANCH  14  15
ATOM     15  C   UNL     1       2.457  37.072 -54.518  0.00  0.00    +0.000 C 
BRANCH  15  16
ATOM     16  C   UNL     1       2.183  35.988 -55.464  0.00  0.00    +0.000 A 
ATOM     17  C   UNL     1       0.901  35.491 -55.544  0.00  0.00    +0.000 A 
ATOM     18  C   UNL     1       0.708  34.463 -56.466  0.00  0.00    +0.000 A 
ATOM     19  N   UNL     1       1.719  33.990 -57.230  0.00  0.00    +0.000 NA
ATOM     20  C   UNL     1       2.971  34.504 -57.126  0.00  0.00    +0.000 A 
ATOM     23  C   UNL     1       3.229  35.522 -56.234  0.00  0.00    +0.000 A 
BRANCH  20  21
ATOM     21  O   UNL     1       4.025  34.039 -57.897  0.00  0.00    +0.000 OA
ATOM     22  C   UNL     1       3.898  32.786 -58.516  0.00  0.00    +0.000 C 
ENDBRANCH  20  21
ENDBRANCH  15  16
ENDBRANCH  14  15
TORSDOF 9
ENDMDL
MODEL 10
REMARK VINA RESULT:      -5.4     27.538     30.580
REMARK  Name = 
REMARK  9 active torsions:
REMARK  status: ('A' for Active; 'I' for Inactive)
REMARK    1  A    between atoms: O_2  and  C_3
REMARK    2  A    between atoms: C_3  and  C_4
REMARK    3  A    between atoms: C_4  and  C_6
REMARK    4  A    between atoms: C_6  and  C_7
REMARK    5  A    between atoms: N_9  and  C_10
REMARK    6  A    between atoms: C_10  and  C_12
REMARK    7  A    between atoms: N_14  and  C_15
REMARK    8  A    between atoms: C_15  and  C_16
REMARK    9  A    between atoms: C_20  and  O_21
REMARK                            x       y       z     vdW  Elec       q    Type
REMARK                         _______ _______ _______ _____ _____    ______ ____
ROOT
ATOM     12  C   UNL     1     -19.971  32.525 -76.445  0.00  0.00    +0.000 C 
ATOM     13  C   UNL     1     -19.246  33.690 -77.086  0.00  0.00    +0.000 C 
ATOM     14  N   UNL     1     -18.075  32.881 -76.862  0.00  0.00    +0.000 NA
ATOM     24  C   UNL     1     -18.716  32.495 -75.633  0.00  0.00    +0.000 C 
ENDROOT
BRANCH  12  10
ATOM     10  C   UNL     1     -19.940  31.442 -77.653  0.00  0.00    +0.000 C 
ATOM     11  C   UNL     1     -20.078  30.086 -76.733  0.00  0.00    +0.000 C 
BRANCH  10   9
ATOM      7  C   UNL     1     -21.727  31.913 -79.255  0.00  0.00    +0.000 C 
ATOM      8  O   UNL     1     -20.755  32.175 -79.993  0.00  0.00    +0.000 OA
ATOM      9  N   UNL     1     -21.502  31.490 -77.923  0.00  0.00    +0.000 NA
BRANCH   7   6
ATOM      6  C   UNL     1     -23.106  32.047 -79.776  0.00  0.00    +0.000 C 
BRANCH   6   4
ATOM      4  C   UNL     1     -24.006  31.217 -78.690  0.00  0.00    +0.000 C 
ATOM      5  C   UNL     1     -24.916  30.482 -79.828  0.00  0.00    +0.000 C 
BRANCH   4   3
ATOM      3  C   UNL     1     -25.049  32.440 -78.438  0.00  0.00    +0.000 C 
BRANCH   3   2
ATOM      1  C   UNL     1     -27.188  33.100 -79.016  0.00  0.00    +0.000 C 
ATOM      2  O   UNL     1     -26.108  32.302 -79.275  0.00  0.00    +0.000 OA
ENDBRANCH   3   2
ENDBRANCH   4   3
ENDBRANCH   6   4
ENDBRANCH   7   6
ENDBRANCH  10   9
ENDBRANCH  12  10
BRANCH  14  15
ATOM     15  C   UNL     1     -16.806  33.448 -76.842  0.00  0.00    +0.000 C 
BRANCH  15  16
ATOM     16  C   UNL     1     -15.770  32.578 -77.402  0.00  0.00    +0.000 A 
ATOM     17  C   UNL     1     -15.278  31.552 -76.625  0.00  0.00    +0.000 A 
ATOM     18  C   UNL     1     -14.296  30.760 -77.220  0.00  0.00    +0.000 A 
ATOM     19  N   UNL     1     -13.860  30.990 -78.478  0.00  0.00    +0.000 NA
ATOM     20  C   UNL     1     -14.366  32.010 -79.217  0.00  0.00    +0.000 A 
ATOM     23  C   UNL     1     -15.340  32.830 -78.689  0.00  0.00    +0.000 A 
BRANCH  20  21
ATOM     21  O   UNL     1     -13.938  32.268 -80.510  0.00  0.00    +0.000 OA
ATOM     22  C   UNL     1     -14.352  31.404 -81.536  0.00  0.00    +0.000 C 
ENDBRANCH  20  21
ENDBRANCH  15  16
ENDBRANCH  14  15
TORSDOF 9
ENDMDL
