REMARK  Name = 
REMARK  9 active torsions:
REMARK  status: ('A' for Active; 'I' for Inactive)
REMARK    1  A    between atoms: O_2  and  C_3
REMARK    2  A    between atoms: C_3  and  C_4
REMARK    3  A    between atoms: C_4  and  C_6
REMARK    4  A    between atoms: C_6  and  C_7
REMARK    5  A    between atoms: N_9  and  C_10
REMARK    6  A    between atoms: C_10  and  C_12
REMARK    7  A    between atoms: N_14  and  C_15
REMARK    8  A    between atoms: C_15  and  C_16
REMARK    9  A    between atoms: C_20  and  O_21
REMARK                            x       y       z     vdW  Elec       q    Type
REMARK                         _______ _______ _______ _____ _____    ______ ____
ROOT
ATOM     12  C   UNL     1       0.298   0.597   1.392  0.00  0.00    +0.000 C 
ATOM     13  C   UNL     1       1.298   1.411   0.597  0.00  0.00    +0.000 C 
ATOM     14  N   UNL     1       1.083   0.402  -0.408  0.00  0.00    +0.000 NA
ATOM     24  C   UNL     1       1.007  -0.519   0.695  0.00  0.00    +0.000 C 
ENDROOT
BRANCH  12  10
ATOM     10  C   UNL     1      -1.086   0.998   0.647  0.00  0.00    +0.000 C 
ATOM     11  C   UNL     1      -1.052  -0.165  -0.516  0.00  0.00    +0.000 C 
BRANCH  10   9
ATOM      7  C   UNL     1      -3.366   0.346   1.247  0.00  0.00    +0.000 C 
ATOM      8  O   UNL     1      -3.646   1.145   0.329  0.00  0.00    +0.000 OA
ATOM      9  N   UNL     1      -2.011   0.116   1.586  0.00  0.00    +0.000 NA
BRANCH   7   6
ATOM      6  C   UNL     1      -4.449  -0.354   1.973  0.00  0.00    +0.000 C 
BRANCH   6   4
ATOM      4  C   UNL     1      -5.811   0.206   1.259  0.00  0.00    +0.000 C 
ATOM      5  C   UNL     1      -6.702  -1.100   1.665  0.00  0.00    +0.000 C 
BRANCH   4   3
ATOM      3  C   UNL     1      -5.408  -0.347  -0.217  0.00  0.00    +0.000 C 
BRANCH   3   2
ATOM      1  C   UNL     1      -7.430  -1.443  -0.459  0.00  0.00    +0.000 C 
ATOM      2  O   UNL     1      -6.537  -0.530  -0.948  0.00  0.00    +0.000 OA
ENDBRANCH   3   2
ENDBRANCH   4   3
ENDBRANCH   6   4
ENDBRANCH   7   6
ENDBRANCH  10   9
ENDBRANCH  12  10
BRANCH  14  15
ATOM     15  C   UNL     1       2.006   0.199  -1.428  0.00  0.00    +0.000 C 
BRANCH  15  16
ATOM     16  C   UNL     1       3.338  -0.169  -0.944  0.00  0.00    +0.000 A 
ATOM     17  C   UNL     1       3.550  -0.241   0.415  0.00  0.00    +0.000 A 
ATOM     18  C   UNL     1       4.839  -0.599   0.808  0.00  0.00    +0.000 A 
ATOM     19  N   UNL     1       5.813  -0.858  -0.093  0.00  0.00    +0.000 NA
ATOM     20  C   UNL     1       5.570  -0.778  -1.426  0.00  0.00    +0.000 A 
ATOM     23  C   UNL     1       4.317  -0.430  -1.881  0.00  0.00    +0.000 A 
BRANCH  20  21
ATOM     21  O   UNL     1       6.550  -1.039  -2.371  0.00  0.00    +0.000 OA
ATOM     22  C   UNL     1       7.832  -1.396  -1.924  0.00  0.00    +0.000 C 
ENDBRANCH  20  21
ENDBRANCH  15  16
ENDBRANCH  14  15
TORSDOF 9
