
     RDKit          3D

 29 31  0  0  0  0  0  0  0  0999 V2000
    1.2255    1.1333    1.6982 O   0  0  0  0  0  0  0  0  0  0  0  0
    0.8929    0.1061    1.0833 C   0  0  0  0  0  0  0  0  0  0  0  0
    1.8704   -0.7749    0.5903 N   0  0  0  0  0  0  0  0  0  0  0  0
    3.3074   -0.5568    0.7583 C   0  0  0  0  0  0  0  0  0  0  0  0
    3.6562    0.7444    0.1008 C   0  0  0  0  0  0  0  0  0  0  0  0
    3.3193    0.7160   -1.3736 C   0  0  0  0  0  0  0  0  0  0  0  0
    4.0610   -0.3214   -1.9578 O   0  0  0  0  0  0  0  0  0  0  0  0
    5.4475   -0.3626   -1.9391 C   0  0  0  0  0  0  0  0  0  0  0  0
    6.0764   -1.4217   -2.5396 C   0  0  0  0  0  0  0  0  0  0  0  0
    7.4419   -1.4755   -2.5289 C   0  0  0  0  0  0  0  0  0  0  0  0
    8.1813   -0.4936   -1.9315 C   0  0  0  0  0  0  0  0  0  0  0  0
    7.5593    0.5823   -1.3211 C   0  0  0  0  0  0  0  0  0  0  0  0
    8.3282    1.5154   -0.7513 F   0  0  0  0  0  0  0  0  0  0  0  0
    6.2000    0.6086   -1.3476 C   0  0  0  0  0  0  0  0  0  0  0  0
   -0.4813   -0.1688    0.8835 N   0  0  0  0  0  0  0  0  0  0  0  0
   -1.5105    0.6868    1.3601 C   0  0  0  0  0  0  0  0  0  0  0  0
   -2.9425    0.0530    0.9471 C   0  0  1  0  0  0  0  0  0  0  0  0
   -2.7694   -1.3403    1.7407 C   0  0  0  0  0  0  0  0  0  0  0  0
   -3.0919   -1.2513    3.1273 C   0  0  0  0  0  0  0  0  0  0  0  0
   -4.4484   -0.7697    3.5233 C   0  0  0  0  0  0  0  0  0  0  0  0
   -4.8956    0.0499    2.4022 N   0  0  0  0  0  0  0  0  0  0  0  0
   -5.3230   -0.8506    1.4032 C   0  0  0  0  0  0  0  0  0  0  0  0
   -5.8633   -0.3379    0.1624 C   0  0  0  0  0  0  0  0  0  0  0  0
   -7.1843    0.0200    0.0754 C   0  0  0  0  0  0  0  0  0  0  0  0
   -7.7621    0.5120   -1.0813 C   0  0  0  0  0  0  0  0  0  0  0  0
   -6.9073    0.6204   -2.1590 C   0  0  0  0  0  0  0  0  0  0  0  0
   -5.5842    0.2719   -2.1051 C   0  0  0  0  0  0  0  0  0  0  0  0
   -5.0762   -0.2060   -0.9368 C   0  0  0  0  0  0  0  0  0  0  0  0
   -3.7273    0.8436    2.1163 C   0  0  0  0  0  0  0  0  0  0  0  0
  1  2  2  0
  2  3  1  0
  3  4  1  0
  4  5  1  0
  5  6  1  0
  6  7  1  0
  7  8  1  0
  8  9  2  0
  9 10  1  0
 10 11  2  0
 11 12  1  0
 12 13  1  0
 12 14  2  0
  2 15  1  0
 15 16  1  0
 17 16  1  1
 17 18  1  0
 18 19  1  0
 19 20  1  0
 20 21  1  0
 21 22  1  0
 22 23  1  0
 23 24  2  0
 24 25  1  0
 25 26  2  0
 26 27  1  0
 27 28  2  0
 21 29  1  0
 14  8  1  0
 29 17  1  0
 28 23  1  0
M  END
>  <zinc_id>  (1) 
ZINC001667676424

>  <smiles>  (1) 
O=C(NCCCOc1cccc(F)c1)NC[C@H]1CCCN(Cc2ccccc2)C1

$$$$
