
     RDKit          3D

 22 23  0  0  0  0  0  0  0  0999 V2000
    4.8138    2.3276    1.3953 C   0  0  0  0  0  0  0  0  0  0  0  0
    4.8126    2.2433   -0.0630 C   0  0  0  0  0  0  0  0  0  0  0  0
    3.6636    2.8317   -0.7551 C   0  0  0  0  0  0  0  0  0  0  0  0
    5.7223    1.3260   -0.6958 C   0  0  0  0  0  0  0  0  0  0  0  0
    5.5636    0.0028   -0.3420 O   0  0  0  0  0  0  0  0  0  0  0  0
    4.3367   -0.5418   -0.6168 C   0  0  0  0  0  0  0  0  0  0  0  0
    3.2163    0.1555    0.1120 C   0  0  0  0  0  0  0  0  0  0  0  0
    1.9711   -0.5172   -0.2645 N   0  0  0  0  0  0  0  0  0  0  0  0
    1.8606   -1.8677    0.2393 C   0  0  0  0  0  0  0  0  0  0  0  0
    0.4553   -1.5124    0.6594 C   0  0  0  0  0  0  0  0  0  0  0  0
   -0.4494   -1.9074   -0.6544 C   0  0  2  0  0  0  0  0  0  0  0  0
    0.2833   -0.8925   -1.7341 C   0  0  0  0  0  0  0  0  0  0  0  0
   -1.6016   -0.8608   -0.3763 N   0  0  0  0  0  0  0  0  0  0  0  0
   -2.8912   -1.3195   -0.2333 C   0  0  0  0  0  0  0  0  0  0  0  0
   -3.1837   -2.5595   -0.3179 O   0  0  0  0  0  0  0  0  0  0  0  0
   -3.9628   -0.3656    0.0228 C   0  0  0  0  0  0  0  0  0  0  0  0
   -3.6474    0.9397    0.1123 N   0  0  0  0  0  0  0  0  0  0  0  0
   -4.5822    1.8691    0.3448 C   0  0  0  0  0  0  0  0  0  0  0  0
   -5.8956    1.4671    0.4943 C   0  0  0  0  0  0  0  0  0  0  0  0
   -6.1902    0.1193    0.3974 C   0  0  0  0  0  0  0  0  0  0  0  0
   -5.2402   -0.7819    0.1656 N   0  0  0  0  0  0  0  0  0  0  0  0
    0.9450   -0.1556    0.6871 C   0  0  0  0  0  0  0  0  0  0  0  0
  1  2  1  0
  2  3  1  0
  2  4  1  0
  4  5  1  0
  5  6  1  0
  6  7  1  0
  7  8  1  0
  8  9  1  0
  9 10  1  0
 10 11  1  0
 11 12  1  6
 11 13  1  0
 13 14  1  0
 14 15  2  0
 14 16  1  0
 16 17  2  0
 17 18  1  0
 18 19  2  0
 19 20  1  0
 20 21  2  0
 10 22  1  0
 22  8  1  0
 21 16  1  0
M  END
>  <zinc_id>  (1) 
ZINC001485529982

>  <smiles>  (1) 
CC(C)COCCN1CC([C@H](C)NC(=O)c2ncccn2)C1

$$$$
