
     RDKit          3D

 25 26  0  0  0  0  0  0  0  0999 V2000
    6.7937   -1.5504    0.9770 C   0  0  0  0  0  0  0  0  0  0  0  0
    6.3792   -1.1322   -0.2171 C   0  0  0  0  0  0  0  0  0  0  0  0
    5.3818   -1.9692   -0.9552 C   0  0  0  0  0  0  0  0  0  0  0  0
    4.2031   -1.1624   -1.1705 N   0  0  0  0  0  0  0  0  0  0  0  0
    4.1346    0.0426   -1.8931 C   0  0  0  0  0  0  0  0  0  0  0  0
    5.2200    0.4718   -2.4100 O   0  0  0  0  0  0  0  0  0  0  0  0
    2.9495    0.8310   -2.1063 C   0  0  0  0  0  0  0  0  0  0  0  0
    1.7886    0.4259   -1.4997 N   0  0  0  0  0  0  0  0  0  0  0  0
    1.5244    0.5602   -0.0989 C   0  0  0  0  0  0  0  0  0  0  0  0
    1.9906   -0.8303    0.0715 C   0  0  0  0  0  0  0  0  0  0  0  0
    0.8677   -1.5724    0.9552 C   0  0  1  0  0  0  0  0  0  0  0  0
    1.0293   -0.5397    2.2294 C   0  0  0  0  0  0  0  0  0  0  0  0
   -0.3746   -0.9304    0.2687 N   0  0  0  0  0  0  0  0  0  0  0  0
   -1.4997   -0.6330    1.0252 C   0  0  0  0  0  0  0  0  0  0  0  0
   -1.3397   -0.9510    2.2487 O   0  0  0  0  0  0  0  0  0  0  0  0
   -2.7426   -0.0365    0.5626 C   0  0  0  0  0  0  0  0  0  0  0  0
   -3.8451    0.2036    1.3588 C   0  0  0  0  0  0  0  0  0  0  0  0
   -4.8510    0.7873    0.5695 C   0  0  0  0  0  0  0  0  0  0  0  0
   -6.1887    1.1833    1.0908 C   0  0  0  0  0  0  0  0  0  0  0  0
   -7.1180    0.0257    0.9897 C   0  0  0  0  0  0  0  0  0  0  0  0
   -6.0826    1.6305    2.5490 C   0  0  0  0  0  0  0  0  0  0  0  0
   -4.3569    0.8809   -0.6227 O   0  0  0  0  0  0  0  0  0  0  0  0
   -3.1331    0.4133   -0.6724 C   0  0  0  0  0  0  0  0  0  0  0  0
   -2.2934    0.3778   -1.8923 C   0  0  0  0  0  0  0  0  0  0  0  0
    1.5629   -0.9962   -1.3579 C   0  0  0  0  0  0  0  0  0  0  0  0
  1  2  2  0
  2  3  1  0
  3  4  1  0
  4  5  1  0
  5  6  2  0
  5  7  1  0
  7  8  1  0
  8  9  1  0
  9 10  1  0
 10 11  1  0
 11 12  1  1
 11 13  1  0
 13 14  1  0
 14 15  2  0
 14 16  1  0
 16 17  1  0
 17 18  2  0
 18 19  1  0
 19 20  1  0
 19 21  1  0
 18 22  1  0
 22 23  1  0
 23 24  1  0
 10 25  1  0
 25  8  1  0
 23 16  2  0
M  END
>  <zinc_id>  (1) 
ZINC001485529977

>  <smiles>  (1) 
C=CCNC(=O)CN1CC([C@H](C)NC(=O)c2cc(C(C)C)oc2C)C1

$$$$
