
     RDKit          3D

 25 27  0  0  0  0  0  0  0  0999 V2000
   -6.2515    2.3196   -0.7250 C   0  0  0  0  0  0  0  0  0  0  0  0
   -5.9903    0.8887   -0.5190 C   0  0  0  0  0  0  0  0  0  0  0  0
   -6.8296   -0.0151    0.0254 N   0  0  0  0  0  0  0  0  0  0  0  0
   -6.2941   -1.1928    0.0630 O   0  0  0  0  0  0  0  0  0  0  0  0
   -5.0933   -1.1040   -0.4515 C   0  0  0  0  0  0  0  0  0  0  0  0
   -4.8507    0.1952   -0.8367 C   0  0  0  0  0  0  0  0  0  0  0  0
   -3.6181    0.7762   -1.4750 C   0  0  0  0  0  0  0  0  0  0  0  0
   -2.6838   -0.3195   -1.6172 N   0  0  0  0  0  0  0  0  0  0  0  0
   -2.3593   -0.8776   -0.3149 C   0  0  0  0  0  0  0  0  0  0  0  0
   -0.8624   -0.6824   -0.5829 C   0  0  0  0  0  0  0  0  0  0  0  0
   -0.3637    0.1045    0.7455 C   0  0  2  0  0  0  0  0  0  0  0  0
   -1.3268    1.4042    0.5736 C   0  0  0  0  0  0  0  0  0  0  0  0
    0.8365    0.7731    0.0102 N   0  0  0  0  0  0  0  0  0  0  0  0
    2.1128    0.4066    0.3797 C   0  0  0  0  0  0  0  0  0  0  0  0
    2.3225   -0.4235    1.2643 O   0  0  0  0  0  0  0  0  0  0  0  0
    3.3673    1.0198   -0.3014 C   0  0  2  0  0  0  0  0  0  0  0  0
    3.3648    0.0906   -1.6213 C   0  0  0  0  0  0  0  0  0  0  0  0
    4.4864    0.2392    0.4888 C   0  0  0  0  0  0  0  0  0  0  0  0
    4.9423    0.6833    1.7134 C   0  0  0  0  0  0  0  0  0  0  0  0
    4.4451    1.9080    2.3914 C   0  0  0  0  0  0  0  0  0  0  0  0
    5.8684   -0.1881    2.1103 N   0  0  0  0  0  0  0  0  0  0  0  0
    5.9989   -1.1267    1.2045 N   0  0  0  0  0  0  0  0  0  0  0  0
    5.1493   -0.8774    0.1919 C   0  0  0  0  0  0  0  0  0  0  0  0
    4.9582   -1.6844   -1.0516 C   0  0  0  0  0  0  0  0  0  0  0  0
   -1.3290    0.1770   -1.6653 C   0  0  0  0  0  0  0  0  0  0  0  0
  1  2  1  0
  2  3  2  0
  3  4  1  0
  4  5  1  0
  5  6  2  0
  6  7  1  0
  7  8  1  0
  8  9  1  0
  9 10  1  0
 10 11  1  0
 11 12  1  6
 11 13  1  0
 13 14  1  0
 14 15  2  0
 14 16  1  0
 16 17  1  6
 16 18  1  0
 18 19  1  0
 19 20  1  0
 19 21  2  0
 21 22  1  0
 22 23  1  0
 23 24  1  0
 10 25  1  0
  6  2  1  0
 25  8  1  0
 23 18  2  0
M  END
>  <zinc_id>  (1) 
ZINC001485529986

>  <smiles>  (1) 
Cc1nocc1CN1CC([C@H](C)NC(=O)[C@H](C)c2c(C)n[nH]c2C)C1

$$$$
