
     RDKit          3D

 31 34  0  0  0  0  0  0  0  0999 V2000
    6.4433    4.2655    0.8491 C   0  0  0  0  0  0  0  0  0  0  0  0
    6.1291    3.2296   -0.0594 O   0  0  0  0  0  0  0  0  0  0  0  0
    6.1823    1.9080    0.3861 C   0  0  0  0  0  0  0  0  0  0  0  0
    6.5108    1.6816    1.5744 O   0  0  0  0  0  0  0  0  0  0  0  0
    5.8584    0.7806   -0.5256 C   0  0  1  0  0  0  0  0  0  0  0  0
    5.9654   -0.5343    0.2090 C   0  0  0  0  0  0  0  0  0  0  0  0
    4.5355   -0.8186   -0.0248 C   0  0  2  0  0  0  0  0  0  0  0  0
    4.3825    0.5247   -0.6841 C   0  0  0  0  0  0  0  0  0  0  0  0
    3.6471   -1.0622    1.1584 C   0  0  0  0  0  0  0  0  0  0  0  0
    2.2216   -0.2817    0.7486 C   0  0  2  0  0  0  0  0  0  0  0  0
    1.3389   -1.5343    1.1218 N   0  0  0  0  0  0  0  0  0  0  0  0
    0.2488   -1.8022    0.2671 C   0  0  0  0  0  0  0  0  0  0  0  0
    0.0859   -1.0219   -0.7277 O   0  0  0  0  0  0  0  0  0  0  0  0
   -0.6640   -2.8648    0.4417 N   0  0  0  0  0  0  0  0  0  0  0  0
   -1.7263   -2.9658   -0.5864 C   0  0  0  0  0  0  0  0  0  0  0  0
   -2.3738   -1.4725   -0.3600 C   0  0  1  0  0  0  0  0  0  0  0  0
   -3.5066   -1.6619   -1.5271 C   0  0  0  0  0  0  0  0  0  0  0  0
   -4.6154   -2.4893   -1.0342 C   0  0  0  0  0  0  0  0  0  0  0  0
   -5.4150   -1.6176   -0.0888 C   0  0  0  0  0  0  0  0  0  0  0  0
   -4.4667   -0.9958    0.8117 N   0  0  0  0  0  0  0  0  0  0  0  0
   -3.9176    0.2322    0.3960 C   0  0  0  0  0  0  0  0  0  0  0  0
   -4.7896    1.3525    0.1246 C   0  0  0  0  0  0  0  0  0  0  0  0
   -4.2721    2.6197    0.3850 C   0  0  0  0  0  0  0  0  0  0  0  0
   -4.9782    3.7568    0.1697 C   0  0  0  0  0  0  0  0  0  0  0  0
   -6.2569    3.6836   -0.3242 C   0  0  0  0  0  0  0  0  0  0  0  0
   -6.7976    2.4348   -0.5931 C   0  0  0  0  0  0  0  0  0  0  0  0
   -6.0727    1.2832   -0.3712 C   0  0  0  0  0  0  0  0  0  0  0  0
   -3.3397   -1.9459    0.8858 C   0  0  0  0  0  0  0  0  0  0  0  0
    2.3626   -0.6927   -0.8482 C   0  0  0  0  0  0  0  0  0  0  0  0
    2.9342   -2.0793   -0.8666 C   0  0  0  0  0  0  0  0  0  0  0  0
    4.3458   -1.9120   -0.8716 O   0  0  0  0  0  0  0  0  0  0  0  0
  1  2  1  0
  2  3  1  0
  3  4  2  0
  5  3  1  1
  5  6  1  0
  7  6  1  1
  7  8  1  0
  7  9  1  0
  9 10  1  0
 10 11  1  1
 11 12  1  0
 12 13  2  0
 12 14  1  0
 14 15  1  0
 16 15  1  6
 16 17  1  0
 17 18  1  0
 18 19  1  0
 19 20  1  0
 20 21  1  0
 21 22  1  0
 22 23  2  0
 23 24  1  0
 24 25  2  0
 25 26  1  0
 26 27  2  0
 20 28  1  0
 10 29  1  0
 29 30  1  0
 30 31  1  0
  8  5  1  0
 28 16  1  0
 31  7  1  0
 27 22  1  0
M  END
>  <zinc_id>  (1) 
ZINC001667676420

>  <smiles>  (1) 
COC(=O)C1CC2(C1)C[C@H](NC(=O)NC[C@H]1CCCN(Cc3ccccc3)C1)CCO2

$$$$
