
     RDKit          3D

 23 24  0  0  0  0  0  0  0  0999 V2000
   -7.1499    0.3064   -0.1901 C   0  0  0  0  0  0  0  0  0  0  0  0
   -5.9622    0.5892   -1.0556 C   0  0  0  0  0  0  0  0  0  0  0  0
   -4.9794   -0.4776   -1.2468 C   0  0  0  0  0  0  0  0  0  0  0  0
   -4.3331   -0.9269    0.1720 C   0  0  1  0  0  0  0  0  0  0  0  0
   -3.3379   -2.0766   -0.5267 C   0  0  0  0  0  0  0  0  0  0  0  0
   -2.5992   -2.6604    0.6553 C   0  0  0  0  0  0  0  0  0  0  0  0
   -3.1847    0.1657    0.3171 C   0  0  0  0  0  0  0  0  0  0  0  0
   -3.5092    1.2523   -0.3637 O   0  0  0  0  0  0  0  0  0  0  0  0
   -2.0512    0.0611    1.0035 N   0  0  0  0  0  0  0  0  0  0  0  0
   -1.0042    1.1785    1.0820 C   0  0  2  0  0  0  0  0  0  0  0  0
   -1.8761    2.3330    0.3214 C   0  0  0  0  0  0  0  0  0  0  0  0
   -0.1593    0.7486   -0.2674 C   0  0  0  0  0  0  0  0  0  0  0  0
    0.9320    1.7961   -0.2808 C   0  0  0  0  0  0  0  0  0  0  0  0
    1.8311    0.8527    0.1999 N   0  0  0  0  0  0  0  0  0  0  0  0
    2.4913    0.9312    1.4326 C   0  0  0  0  0  0  0  0  0  0  0  0
    3.2813   -0.3401    1.6295 C   0  0  0  0  0  0  0  0  0  0  0  0
    4.2375   -0.4627    0.5029 C   0  0  0  0  0  0  0  0  0  0  0  0
    5.5256   -0.0037    0.5964 C   0  0  0  0  0  0  0  0  0  0  0  0
    6.3976   -0.1294   -0.4508 C   0  0  0  0  0  0  0  0  0  0  0  0
    5.9868   -0.7275   -1.6315 C   0  0  0  0  0  0  0  0  0  0  0  0
    4.7207   -1.1729   -1.7084 C   0  0  0  0  0  0  0  0  0  0  0  0
    3.8345   -1.0544   -0.6671 C   0  0  0  0  0  0  0  0  0  0  0  0
    0.9079   -0.1827    0.0214 C   0  0  0  0  0  0  0  0  0  0  0  0
  1  2  1  0
  2  3  1  0
  4  3  1  6
  4  5  1  0
  5  6  1  0
  4  7  1  0
  7  8  2  0
  7  9  1  0
  9 10  1  0
 10 11  1  6
 10 12  1  0
 12 13  1  0
 13 14  1  0
 14 15  1  0
 15 16  1  0
 16 17  1  0
 17 18  2  0
 18 19  1  0
 19 20  2  0
 20 21  1  0
 21 22  2  0
 14 23  1  0
 23 12  1  0
 22 17  1  0
M  END
>  <zinc_id>  (1) 
ZINC001485529938

>  <smiles>  (1) 
CCC[C@@H](CC)C(=O)N[C@H](C)C1CN(CCc2ccccc2)C1

$$$$
