
     RDKit          3D

 25 26  0  0  0  0  0  0  0  0999 V2000
    7.4579    1.4261    1.0076 C   0  0  0  0  0  0  0  0  0  0  0  0
    7.2801    0.3273   -0.0216 C   0  0  0  0  0  0  0  0  0  0  0  0
    5.7149   -0.1297    0.2915 C   0  0  2  0  0  0  0  0  0  0  0  0
    5.7541   -1.1813   -0.7988 F   0  0  0  0  0  0  0  0  0  0  0  0
    5.1120    1.0122   -0.7174 C   0  0  0  0  0  0  0  0  0  0  0  0
    3.7667    0.8652   -0.6583 N   0  0  0  0  0  0  0  0  0  0  0  0
    2.9124    1.1177    0.3978 C   0  0  0  0  0  0  0  0  0  0  0  0
    1.7943    0.8679   -0.5834 C   0  0  0  0  0  0  0  0  0  0  0  0
    1.4542   -0.7207   -0.6438 C   0  0  2  0  0  0  0  0  0  0  0  0
    0.2734   -0.5469   -1.7451 C   0  0  0  0  0  0  0  0  0  0  0  0
    0.5419   -0.7187    0.5956 N   0  0  0  0  0  0  0  0  0  0  0  0
   -0.8119   -0.9778    0.5558 C   0  0  0  0  0  0  0  0  0  0  0  0
   -1.3485   -1.2319   -0.5519 O   0  0  0  0  0  0  0  0  0  0  0  0
   -1.5898   -0.9440    1.8405 C   0  0  0  0  0  0  0  0  0  0  0  0
   -2.9979   -1.2319    1.4759 C   0  0  0  0  0  0  0  0  0  0  0  0
   -3.5254   -2.4684    1.7478 C   0  0  0  0  0  0  0  0  0  0  0  0
   -4.8340   -2.7241    1.4078 C   0  0  0  0  0  0  0  0  0  0  0  0
   -5.5822   -1.7174    0.7963 C   0  0  0  0  0  0  0  0  0  0  0  0
   -5.0154   -0.4975    0.5430 C   0  0  0  0  0  0  0  0  0  0  0  0
   -3.7035   -0.2204    0.8768 C   0  0  0  0  0  0  0  0  0  0  0  0
   -3.1753    1.0587    0.5895 N   0  0  0  0  0  0  0  0  0  0  0  0
   -3.8745    2.1024   -0.0213 C   0  0  0  0  0  0  0  0  0  0  0  0
   -3.3343    3.4496   -0.3305 C   0  0  0  0  0  0  0  0  0  0  0  0
   -5.0912    1.8758   -0.3436 O   0  0  0  0  0  0  0  0  0  0  0  0
    2.8222    1.2078   -1.6334 C   0  0  0  0  0  0  0  0  0  0  0  0
  1  2  1  0
  2  3  1  0
  3  4  1  6
  3  5  1  0
  5  6  1  0
  6  7  1  0
  7  8  1  0
  8  9  1  0
  9 10  1  6
  9 11  1  0
 11 12  1  0
 12 13  2  0
 12 14  1  0
 14 15  1  0
 15 16  2  0
 16 17  1  0
 17 18  2  0
 18 19  1  0
 19 20  2  0
 20 21  1  0
 21 22  1  0
 22 23  1  0
 22 24  2  0
  8 25  1  0
 25  6  1  0
 20 15  1  0
M  END
>  <zinc_id>  (1) 
ZINC001485529998

>  <smiles>  (1) 
CC[C@H](F)CN1CC([C@H](C)NC(=O)Cc2ccccc2NC(C)=O)C1

$$$$
