
     RDKit          3D

 26 27  0  0  0  0  0  0  0  0999 V2000
    6.8855   -2.7432   -0.2795 C   0  0  0  0  0  0  0  0  0  0  0  0
    6.4505   -1.4813   -0.2293 C   0  0  0  0  0  0  0  0  0  0  0  0
    5.2189   -1.2271    0.5641 C   0  0  0  0  0  0  0  0  0  0  0  0
    4.1101   -0.6493   -0.2750 C   0  0  0  0  0  0  0  0  0  0  0  0
    2.8929   -0.4275    0.5975 C   0  0  0  0  0  0  0  0  0  0  0  0
    1.8383    0.1907   -0.5168 C   0  0  1  0  0  0  0  0  0  0  0  0
    0.6758    0.3462    0.5174 N   0  0  0  0  0  0  0  0  0  0  0  0
   -0.1952   -0.7455    0.5624 C   0  0  0  0  0  0  0  0  0  0  0  0
    0.0376   -1.7123   -0.2167 O   0  0  0  0  0  0  0  0  0  0  0  0
   -1.3326   -0.8280    1.4422 N   0  0  0  0  0  0  0  0  0  0  0  0
   -2.1306   -2.0282    1.3696 C   0  0  0  0  0  0  0  0  0  0  0  0
   -2.7187   -2.1271   -0.1515 C   0  0  1  0  0  0  0  0  0  0  0  0
   -3.5030   -3.5599    0.1683 C   0  0  0  0  0  0  0  0  0  0  0  0
   -4.0142   -1.2965    0.1404 N   0  0  0  0  0  0  0  0  0  0  0  0
   -3.6757    0.0157    0.5104 C   0  0  0  0  0  0  0  0  0  0  0  0
   -4.2159    1.0738   -0.4170 C   0  0  0  0  0  0  0  0  0  0  0  0
   -5.7009    0.7742   -0.5025 C   0  0  0  0  0  0  0  0  0  0  0  0
   -6.1578    0.5504    0.9273 C   0  0  0  0  0  0  0  0  0  0  0  0
   -5.8773   -0.5162   -1.2650 C   0  0  0  0  0  0  0  0  0  0  0  0
   -4.7266   -1.4572   -1.0991 C   0  0  0  0  0  0  0  0  0  0  0  0
    2.3460    1.6698   -0.4140 C   0  0  0  0  0  0  0  0  0  0  0  0
    1.3693    2.6141   -0.5075 C   0  0  0  0  0  0  0  0  0  0  0  0
    1.7229    3.9795   -0.4404 C   0  0  0  0  0  0  0  0  0  0  0  0
    3.0575    4.2806   -0.2813 C   0  0  0  0  0  0  0  0  0  0  0  0
    4.0158    3.3068   -0.1902 C   0  0  0  0  0  0  0  0  0  0  0  0
    3.6275    1.9976   -0.2606 C   0  0  0  0  0  0  0  0  0  0  0  0
  1  2  2  0
  2  3  1  0
  3  4  1  0
  4  5  1  0
  6  5  1  1
  6  7  1  0
  7  8  1  0
  8  9  2  0
  8 10  1  0
 10 11  1  0
 11 12  1  0
 12 13  1  1
 12 14  1  0
 14 15  1  0
 15 16  1  0
 16 17  1  0
 17 18  1  0
 17 19  1  0
 19 20  1  0
  6 21  1  0
 21 22  2  0
 22 23  1  0
 23 24  2  0
 24 25  1  0
 25 26  2  0
 20 14  1  0
 26 21  1  0
M  END
>  <zinc_id>  (1) 
ZINC001667676460

>  <smiles>  (1) 
C=CCCC[C@@H](NC(=O)NC[C@@H](C)N1CCC(C)CC1)c1ccccc1

$$$$
