
     RDKit          3D

 29 32  0  0  0  0  0  0  0  0999 V2000
    2.7350   -0.2021    2.0794 C   0  0  0  0  0  0  0  0  0  0  0  0
    3.2063   -1.3974    1.0279 C   0  0  1  0  0  0  0  0  0  0  0  0
    2.1874   -0.9735   -0.1064 N   0  0  0  0  0  0  0  0  0  0  0  0
    0.8577   -0.7205    0.3178 C   0  0  0  0  0  0  0  0  0  0  0  0
    0.4571   -0.7971    1.4902 O   0  0  0  0  0  0  0  0  0  0  0  0
   -0.1059   -0.3470   -0.6570 N   0  0  0  0  0  0  0  0  0  0  0  0
   -1.4330   -0.0338   -0.5075 C   0  0  0  0  0  0  0  0  0  0  0  0
   -2.2991   -1.2543    0.1535 C   0  0  2  0  0  0  0  0  0  0  0  0
   -1.9887   -2.3552   -1.0224 C   0  0  0  0  0  0  0  0  0  0  0  0
   -3.0191   -3.4378   -0.8432 C   0  0  0  0  0  0  0  0  0  0  0  0
   -4.2282   -3.0297   -0.0627 C   0  0  0  0  0  0  0  0  0  0  0  0
   -4.6492   -1.6938   -0.2347 N   0  0  0  0  0  0  0  0  0  0  0  0
   -5.4181   -1.1679    0.8625 C   0  0  0  0  0  0  0  0  0  0  0  0
   -5.6486    0.2870    0.5124 C   0  0  0  0  0  0  0  0  0  0  0  0
   -5.1057    1.3118    1.2229 C   0  0  0  0  0  0  0  0  0  0  0  0
   -5.3324    2.6221    0.8276 C   0  0  0  0  0  0  0  0  0  0  0  0
   -6.1069    2.8763   -0.2817 C   0  0  0  0  0  0  0  0  0  0  0  0
   -6.6458    1.8296   -0.9848 C   0  0  0  0  0  0  0  0  0  0  0  0
   -6.4197    0.5279   -0.5913 C   0  0  0  0  0  0  0  0  0  0  0  0
   -3.6766   -0.7369   -0.6338 C   0  0  0  0  0  0  0  0  0  0  0  0
    4.4414   -0.5355    0.4268 C   0  0  0  0  0  0  0  0  0  0  0  0
    5.6469   -1.1808    0.3788 C   0  0  0  0  0  0  0  0  0  0  0  0
    6.7111   -0.4265   -0.1195 C   0  0  0  0  0  0  0  0  0  0  0  0
    6.5493    0.8813   -0.5334 C   0  0  0  0  0  0  0  0  0  0  0  0
    5.2989    1.4430   -0.4486 C   0  0  0  0  0  0  0  0  0  0  0  0
    4.2215    0.7364    0.0370 C   0  0  0  0  0  0  0  0  0  0  0  0
    5.4224    2.8309   -0.9575 C   0  0  0  0  0  0  0  0  0  0  0  0
    6.8936    3.1108   -0.7000 C   0  0  0  0  0  0  0  0  0  0  0  0
    7.4484    1.8324   -1.0606 O   0  0  0  0  0  0  0  0  0  0  0  0
  2  1  1  1
  2  3  1  0
  3  4  1  0
  4  5  2  0
  4  6  1  0
  6  7  1  0
  8  7  1  6
  8  9  1  0
  9 10  1  0
 10 11  1  0
 11 12  1  0
 12 13  1  0
 13 14  1  0
 14 15  2  0
 15 16  1  0
 16 17  2  0
 17 18  1  0
 18 19  2  0
 12 20  1  0
  2 21  1  0
 21 22  2  0
 22 23  1  0
 23 24  2  0
 24 25  1  0
 25 26  2  0
 25 27  1  0
 27 28  1  0
 28 29  1  0
 20  8  1  0
 26 21  1  0
 19 14  1  0
 29 24  1  0
M  END
>  <zinc_id>  (1) 
ZINC001667676435

>  <smiles>  (1) 
C[C@@H](NC(=O)NC[C@@H]1CCCN(Cc2ccccc2)C1)c1ccc2c(c1)CCO2

$$$$
