
     RDKit          3D

 30 33  0  0  0  0  0  0  0  0999 V2000
    0.5082    0.1874    0.7384 O   0  0  0  0  0  0  0  0  0  0  0  0
    0.8994    1.3578    0.9899 C   0  0  0  0  0  0  0  0  0  0  0  0
   -0.0748    2.3519    1.0651 N   0  0  0  0  0  0  0  0  0  0  0  0
   -1.4593    2.3537    0.9301 C   0  0  0  0  0  0  0  0  0  0  0  0
   -2.0933    1.4099    2.0862 C   0  0  1  0  0  0  0  0  0  0  0  0
   -3.7033    1.6550    1.7177 C   0  0  0  0  0  0  0  0  0  0  0  0
   -3.8656    2.1590    0.3805 C   0  0  0  0  0  0  0  0  0  0  0  0
   -2.9843    1.3542   -0.5843 C   0  0  0  0  0  0  0  0  0  0  0  0
   -2.6762    0.1426    0.0269 N   0  0  0  0  0  0  0  0  0  0  0  0
   -3.0687   -1.0525   -0.6024 C   0  0  0  0  0  0  0  0  0  0  0  0
   -4.5072   -1.2362   -0.8318 C   0  0  0  0  0  0  0  0  0  0  0  0
   -4.9294   -2.4012   -1.4332 C   0  0  0  0  0  0  0  0  0  0  0  0
   -6.2746   -2.6294   -1.6753 C   0  0  0  0  0  0  0  0  0  0  0  0
   -7.1524   -1.6636   -1.2976 C   0  0  0  0  0  0  0  0  0  0  0  0
   -6.7465   -0.5049   -0.7008 C   0  0  0  0  0  0  0  0  0  0  0  0
   -5.4238   -0.2908   -0.4677 C   0  0  0  0  0  0  0  0  0  0  0  0
   -2.0291    0.0259    1.2128 C   0  0  0  0  0  0  0  0  0  0  0  0
    2.2595    1.5495    1.1685 N   0  0  0  0  0  0  0  0  0  0  0  0
    3.3755    0.8877    1.1192 C   0  0  0  0  0  0  0  0  0  0  0  0
    4.0257    0.3464   -0.0832 C   0  0  1  0  0  0  0  0  0  0  0  0
    3.1987   -0.5871   -0.8357 C   0  0  0  0  0  0  0  0  0  0  0  0
    2.1337   -0.0587   -1.5021 O   0  0  0  0  0  0  0  0  0  0  0  0
    4.5219    1.4375   -1.0327 C   0  0  0  0  0  0  0  0  0  0  0  0
    5.5888    0.8656   -1.7132 O   0  0  0  0  0  0  0  0  0  0  0  0
    5.2762   -0.4821   -1.8908 C   0  0  0  0  0  0  0  0  0  0  0  0
    5.8951   -1.2042   -0.5369 C   0  0  2  0  0  0  0  0  0  0  0  0
    4.6929   -2.3342   -0.4439 C   0  0  0  0  0  0  0  0  0  0  0  0
    4.4028   -2.3178    1.0140 C   0  0  0  0  0  0  0  0  0  0  0  0
    4.9851   -1.0848    1.6075 C   0  0  0  0  0  0  0  0  0  0  0  0
    5.2250   -0.2365    0.4925 N   0  0  0  0  0  0  0  0  0  0  0  0
  1  2  2  0
  2  3  1  0
  3  4  1  0
  5  4  1  6
  5  6  1  0
  6  7  1  0
  7  8  1  0
  8  9  1  0
  9 10  1  0
 10 11  1  0
 11 12  2  0
 12 13  1  0
 13 14  2  0
 14 15  1  0
 15 16  2  0
  9 17  1  0
  2 18  1  0
 18 19  1  0
 20 19  1  1
 20 21  1  0
 21 22  1  0
 20 23  1  0
 23 24  1  0
 24 25  1  0
 26 25  1  6
 26 27  1  0
 27 28  1  0
 28 29  1  0
 29 30  1  0
 17  5  1  0
 30 20  1  0
 16 11  1  0
 30 26  1  0
M  END
>  <zinc_id>  (1) 
ZINC001667676437

>  <smiles>  (1) 
O=C(NC[C@H]1CCCN(Cc2ccccc2)C1)NC[C@@]1(CO)COC[C@@H]2CCCN21

$$$$
