
     RDKit          3D

 31 34  0  0  0  0  0  0  0  0999 V2000
    7.4684    1.8593    2.9757 C   0  0  0  0  0  0  0  0  0  0  0  0
    6.6610    1.1584    2.0543 O   0  0  0  0  0  0  0  0  0  0  0  0
    7.1483    0.4698    0.9761 C   0  0  0  0  0  0  0  0  0  0  0  0
    8.4240    0.5086    0.8575 O   0  0  0  0  0  0  0  0  0  0  0  0
    6.4981   -0.2919   -0.0508 C   0  0  1  0  0  0  0  0  0  0  0  0
    5.5613   -1.2742    0.6825 C   0  0  0  0  0  0  0  0  0  0  0  0
    4.4395   -0.3835    0.2028 C   0  0  2  0  0  0  0  0  0  0  0  0
    5.3762    0.0954   -0.8805 C   0  0  0  0  0  0  0  0  0  0  0  0
    4.1056    0.7514    1.0336 C   0  0  0  0  0  0  0  0  0  0  0  0
    2.5281    1.1009    1.0171 C   0  0  1  0  0  0  0  0  0  0  0  0
    2.1508    0.5582   -0.3960 N   0  0  0  0  0  0  0  0  0  0  0  0
    0.8440    0.8681   -0.8440 C   0  0  0  0  0  0  0  0  0  0  0  0
    0.1179    1.5471   -0.0937 O   0  0  0  0  0  0  0  0  0  0  0  0
    0.2883    0.4623   -2.0876 N   0  0  0  0  0  0  0  0  0  0  0  0
   -1.0757    0.8732   -2.3854 C   0  0  0  0  0  0  0  0  0  0  0  0
   -1.9935    0.2388   -1.2146 C   0  0  2  0  0  0  0  0  0  0  0  0
   -1.6063   -1.2919   -1.5384 C   0  0  0  0  0  0  0  0  0  0  0  0
   -2.5684   -2.1005   -0.7205 C   0  0  0  0  0  0  0  0  0  0  0  0
   -3.8653   -1.4662   -0.4684 C   0  0  0  0  0  0  0  0  0  0  0  0
   -4.3445   -0.4562   -1.3210 N   0  0  0  0  0  0  0  0  0  0  0  0
   -5.2233    0.5000   -0.6825 C   0  0  0  0  0  0  0  0  0  0  0  0
   -6.4332   -0.1201   -0.1207 C   0  0  0  0  0  0  0  0  0  0  0  0
   -6.4633   -0.8129    1.0707 C   0  0  0  0  0  0  0  0  0  0  0  0
   -7.6104   -1.3645    1.5770 C   0  0  0  0  0  0  0  0  0  0  0  0
   -8.8093   -1.2446    0.8948 C   0  0  0  0  0  0  0  0  0  0  0  0
   -8.8131   -0.5531   -0.3092 C   0  0  0  0  0  0  0  0  0  0  0  0
   -7.6474   -0.0061   -0.7974 C   0  0  0  0  0  0  0  0  0  0  0  0
   -3.3473    0.1881   -2.1403 C   0  0  0  0  0  0  0  0  0  0  0  0
    2.1246   -0.3072    1.7807 C   0  0  0  0  0  0  0  0  0  0  0  0
    2.6756   -1.4244    1.0394 C   0  0  0  0  0  0  0  0  0  0  0  0
    3.3894   -1.2006   -0.1115 O   0  0  0  0  0  0  0  0  0  0  0  0
  1  2  1  0
  2  3  1  0
  3  4  2  0
  5  3  1  1
  5  6  1  0
  7  6  1  1
  7  8  1  0
  7  9  1  0
  9 10  1  0
 10 11  1  6
 11 12  1  0
 12 13  2  0
 12 14  1  0
 14 15  1  0
 16 15  1  6
 16 17  1  0
 17 18  1  0
 18 19  1  0
 19 20  1  0
 20 21  1  0
 21 22  1  0
 22 23  2  0
 23 24  1  0
 24 25  2  0
 25 26  1  0
 26 27  2  0
 20 28  1  0
 10 29  1  0
 29 30  1  0
 30 31  1  0
  8  5  1  0
 28 16  1  0
 31  7  1  0
 27 22  1  0
M  END
>  <zinc_id>  (1) 
ZINC001667676421

>  <smiles>  (1) 
COC(=O)C1CC2(C1)C[C@@H](NC(=O)NC[C@@H]1CCCN(Cc3ccccc3)C1)CCO2

$$$$
