
     RDKit          3D

 26 27  0  0  0  0  0  0  0  0999 V2000
    4.6872    2.9245    1.9779 C   0  0  0  0  0  0  0  0  0  0  0  0
    3.6319    2.1212    2.0925 C   0  0  0  0  0  0  0  0  0  0  0  0
    3.5146    1.0050    3.0349 C   0  0  0  0  0  0  0  0  0  0  0  0
    3.3053   -0.3362    2.4611 C   0  0  0  0  0  0  0  0  0  0  0  0
    2.0609   -0.5106    1.6267 C   0  0  0  0  0  0  0  0  0  0  0  0
    2.2311    0.5727    0.4055 C   0  0  2  0  0  0  0  0  0  0  0  0
    0.9093    0.2940   -0.3614 N   0  0  0  0  0  0  0  0  0  0  0  0
   -0.0755   -0.5262    0.0837 C   0  0  0  0  0  0  0  0  0  0  0  0
    0.0643   -1.1104    1.1769 O   0  0  0  0  0  0  0  0  0  0  0  0
   -1.2667   -0.7170   -0.7033 N   0  0  0  0  0  0  0  0  0  0  0  0
   -2.2952   -1.6029   -0.1991 C   0  0  0  0  0  0  0  0  0  0  0  0
   -3.4287   -1.5390   -1.3721 C   0  0  1  0  0  0  0  0  0  0  0  0
   -4.4264   -2.6057   -0.5758 C   0  0  0  0  0  0  0  0  0  0  0  0
   -4.0995   -0.2587   -0.8818 N   0  0  0  0  0  0  0  0  0  0  0  0
   -3.2561    0.8465   -0.8947 C   0  0  0  0  0  0  0  0  0  0  0  0
   -3.6026    1.9489    0.0700 C   0  0  0  0  0  0  0  0  0  0  0  0
   -5.0759    2.0947    0.1647 C   0  0  0  0  0  0  0  0  0  0  0  0
   -5.7400    2.8358   -0.9440 C   0  0  0  0  0  0  0  0  0  0  0  0
   -5.7533    0.8126    0.5622 C   0  0  0  0  0  0  0  0  0  0  0  0
   -5.2186   -0.3848   -0.1324 C   0  0  0  0  0  0  0  0  0  0  0  0
    3.1636   -0.2727   -0.4898 C   0  0  0  0  0  0  0  0  0  0  0  0
    4.0804   -1.1599   -0.0554 C   0  0  0  0  0  0  0  0  0  0  0  0
    4.9064   -1.8832   -0.8934 C   0  0  0  0  0  0  0  0  0  0  0  0
    4.7791   -1.6814   -2.2443 C   0  0  0  0  0  0  0  0  0  0  0  0
    3.8625   -0.7904   -2.7344 C   0  0  0  0  0  0  0  0  0  0  0  0
    3.0418   -0.0767   -1.8333 C   0  0  0  0  0  0  0  0  0  0  0  0
  1  2  2  0
  2  3  1  0
  3  4  1  0
  4  5  1  0
  6  5  1  1
  6  7  1  0
  7  8  1  0
  8  9  2  0
  8 10  1  0
 10 11  1  0
 11 12  1  0
 12 13  1  1
 12 14  1  0
 14 15  1  0
 15 16  1  0
 16 17  1  0
 17 18  1  0
 17 19  1  0
 19 20  1  0
  6 21  1  0
 21 22  2  0
 22 23  1  0
 23 24  2  0
 24 25  1  0
 25 26  2  0
 20 14  1  0
 26 21  1  0
M  END
>  <zinc_id>  (1) 
ZINC001667676457

>  <smiles>  (1) 
C=CCCC[C@H](NC(=O)NC[C@@H](C)N1CCC(C)CC1)c1ccccc1

$$$$
