
     RDKit          3D

 25 26  0  0  0  0  0  0  0  0999 V2000
   -5.9049    2.3794    0.2711 C   0  0  0  0  0  0  0  0  0  0  0  0
   -5.7373    1.2363    1.2966 C   0  0  0  0  0  0  0  0  0  0  0  0
   -6.5268    0.0158    0.4907 C   0  0  2  0  0  0  0  0  0  0  0  0
   -6.3077   -0.9850    1.6641 F   0  0  0  0  0  0  0  0  0  0  0  0
   -5.1752   -0.5664   -0.2658 C   0  0  0  0  0  0  0  0  0  0  0  0
   -4.6514    0.5263   -1.0391 N   0  0  0  0  0  0  0  0  0  0  0  0
   -3.7013   -0.0102   -1.9845 C   0  0  0  0  0  0  0  0  0  0  0  0
   -2.5360    0.4887   -1.2788 C   0  0  0  0  0  0  0  0  0  0  0  0
   -1.8635   -0.6924   -0.3075 C   0  0  1  0  0  0  0  0  0  0  0  0
   -1.6614   -1.7267   -1.6459 C   0  0  0  0  0  0  0  0  0  0  0  0
   -0.3912   -0.1868   -0.5033 N   0  0  0  0  0  0  0  0  0  0  0  0
    0.3954    0.2242    0.5337 C   0  0  0  0  0  0  0  0  0  0  0  0
   -0.0042    0.2424    1.7290 O   0  0  0  0  0  0  0  0  0  0  0  0
    1.8009    0.6713    0.2539 C   0  0  0  0  0  0  0  0  0  0  0  0
    2.8265   -0.2138    0.8232 C   0  0  0  0  0  0  0  0  0  0  0  0
    2.5876   -1.1034    1.8820 C   0  0  0  0  0  0  0  0  0  0  0  0
    3.6636   -1.8808    2.2908 C   0  0  0  0  0  0  0  0  0  0  0  0
    4.9149   -1.8414    1.7489 C   0  0  0  0  0  0  0  0  0  0  0  0
    5.1147   -0.9541    0.7105 C   0  0  0  0  0  0  0  0  0  0  0  0
    4.0826   -0.1391    0.2407 C   0  0  0  0  0  0  0  0  0  0  0  0
    4.3758    0.7604   -0.8145 N   0  0  0  0  0  0  0  0  0  0  0  0
    5.7149    0.8041   -1.4077 C   0  0  0  0  0  0  0  0  0  0  0  0
    5.9924    1.7518   -2.5024 C   0  0  0  0  0  0  0  0  0  0  0  0
    6.5165    0.0114   -0.9227 O   0  0  0  0  0  0  0  0  0  0  0  0
   -3.5249    1.1881   -0.3792 C   0  0  0  0  0  0  0  0  0  0  0  0
  1  2  1  0
  2  3  1  0
  3  4  1  1
  3  5  1  0
  5  6  1  0
  6  7  1  0
  7  8  1  0
  8  9  1  0
  9 10  1  6
  9 11  1  0
 11 12  1  0
 12 13  2  0
 12 14  1  0
 14 15  1  0
 15 16  2  0
 16 17  1  0
 17 18  2  0
 18 19  1  0
 19 20  2  0
 20 21  1  0
 21 22  1  0
 22 23  1  0
 22 24  2  0
  8 25  1  0
 25  6  1  0
 20 15  1  0
M  END
>  <zinc_id>  (1) 
ZINC001485529996

>  <smiles>  (1) 
CC[C@H](F)CN1CC([C@@H](C)NC(=O)Cc2ccccc2NC(C)=O)C1

$$$$
