
     RDKit          3D

 30 33  0  0  0  0  0  0  0  0999 V2000
   -0.1574    1.2790    1.9049 O   0  0  0  0  0  0  0  0  0  0  0  0
   -0.4211    0.1024    1.5634 C   0  0  0  0  0  0  0  0  0  0  0  0
    0.5100   -0.9312    1.5171 N   0  0  0  0  0  0  0  0  0  0  0  0
    1.8294   -0.9465    1.7779 C   0  0  0  0  0  0  0  0  0  0  0  0
    2.8216   -0.1102    0.8939 C   0  0  2  0  0  0  0  0  0  0  0  0
    2.2647    1.3579    1.1607 C   0  0  0  0  0  0  0  0  0  0  0  0
    3.0919    2.2247    0.2790 C   0  0  0  0  0  0  0  0  0  0  0  0
    2.9529    1.8454   -1.1426 C   0  0  0  0  0  0  0  0  0  0  0  0
    2.5870    0.5368   -1.4711 N   0  0  0  0  0  0  0  0  0  0  0  0
    3.4786   -0.0420   -2.4332 C   0  0  0  0  0  0  0  0  0  0  0  0
    4.8659   -0.0585   -1.8774 C   0  0  0  0  0  0  0  0  0  0  0  0
    5.1761    0.4640   -0.6561 C   0  0  0  0  0  0  0  0  0  0  0  0
    6.4263    0.4630   -0.1261 C   0  0  0  0  0  0  0  0  0  0  0  0
    7.4746   -0.0903   -0.8336 C   0  0  0  0  0  0  0  0  0  0  0  0
    7.1769   -0.6213   -2.0674 C   0  0  0  0  0  0  0  0  0  0  0  0
    5.9125   -0.6244   -2.6119 C   0  0  0  0  0  0  0  0  0  0  0  0
    2.0400   -0.3242   -0.5068 C   0  0  0  0  0  0  0  0  0  0  0  0
   -1.8082   -0.1104    1.2096 N   0  0  0  0  0  0  0  0  0  0  0  0
   -2.7064    1.0051    1.2828 C   0  0  0  0  0  0  0  0  0  0  0  0
   -4.1107    0.5941    0.8774 C   0  0  1  0  0  0  0  0  0  0  0  0
   -4.5414   -0.4875    1.8406 C   0  0  0  0  0  0  0  0  0  0  0  0
   -4.4735    0.0552    3.1402 O   0  0  0  0  0  0  0  0  0  0  0  0
   -4.9848    1.8081    1.1689 C   0  0  0  0  0  0  0  0  0  0  0  0
   -6.2500    1.6047    0.6784 O   0  0  0  0  0  0  0  0  0  0  0  0
   -6.3587    0.2839    0.2766 C   0  0  0  0  0  0  0  0  0  0  0  0
   -5.4938    0.3133   -1.1116 C   0  0  2  0  0  0  0  0  0  0  0  0
   -5.5818   -1.3082   -1.2993 C   0  0  0  0  0  0  0  0  0  0  0  0
   -4.2417   -1.5380   -1.9534 C   0  0  0  0  0  0  0  0  0  0  0  0
   -3.3783   -0.7094   -1.0338 C   0  0  0  0  0  0  0  0  0  0  0  0
   -4.1007    0.2855   -0.4468 N   0  0  0  0  0  0  0  0  0  0  0  0
  1  2  2  0
  2  3  1  0
  3  4  1  0
  5  4  1  1
  5  6  1  0
  6  7  1  0
  7  8  1  0
  8  9  1  0
  9 10  1  0
 10 11  1  0
 11 12  2  0
 12 13  1  0
 13 14  2  0
 14 15  1  0
 15 16  2  0
  9 17  1  0
  2 18  1  0
 18 19  1  0
 20 19  1  1
 20 21  1  0
 21 22  1  0
 20 23  1  0
 23 24  1  0
 24 25  1  0
 26 25  1  1
 26 27  1  0
 27 28  1  0
 28 29  1  0
 29 30  1  0
 17  5  1  0
 30 20  1  0
 16 11  1  0
 30 26  1  0
M  END
>  <zinc_id>  (1) 
ZINC001667676438

>  <smiles>  (1) 
O=C(NC[C@@H]1CCCN(Cc2ccccc2)C1)NC[C@@]1(CO)COC[C@@H]2CCCN21

$$$$
