
     RDKit          3D

 26 27  0  0  0  0  0  0  0  0999 V2000
   -2.8165    3.8396   -0.0891 C   0  0  0  0  0  0  0  0  0  0  0  0
   -3.9810    3.8921    0.5145 C   0  0  0  0  0  0  0  0  0  0  0  0
   -4.7109    2.6316    0.8212 C   0  0  0  0  0  0  0  0  0  0  0  0
   -3.9335    1.4588    0.3562 C   0  0  0  0  0  0  0  0  0  0  0  0
   -3.6475    1.4132   -1.0930 C   0  0  0  0  0  0  0  0  0  0  0  0
   -2.7782    0.0302   -1.3605 C   0  0  1  0  0  0  0  0  0  0  0  0
   -1.6113    0.4867   -0.3845 N   0  0  0  0  0  0  0  0  0  0  0  0
   -0.3486   -0.0801   -0.6947 C   0  0  0  0  0  0  0  0  0  0  0  0
   -0.2724   -0.8572   -1.6640 O   0  0  0  0  0  0  0  0  0  0  0  0
    0.8377    0.1590    0.0010 N   0  0  0  0  0  0  0  0  0  0  0  0
    2.0680   -0.4311   -0.3529 C   0  0  0  0  0  0  0  0  0  0  0  0
    3.1960    0.1430    0.7394 C   0  0  2  0  0  0  0  0  0  0  0  0
    2.9697    1.7576    0.3227 C   0  0  0  0  0  0  0  0  0  0  0  0
    4.3875    0.0058   -0.3158 N   0  0  0  0  0  0  0  0  0  0  0  0
    5.4608    0.7597    0.2240 C   0  0  0  0  0  0  0  0  0  0  0  0
    6.3286    0.0381    1.2229 C   0  0  0  0  0  0  0  0  0  0  0  0
    6.8360   -1.2053    0.4750 C   0  0  0  0  0  0  0  0  0  0  0  0
    7.2518   -0.7419   -0.9179 C   0  0  0  0  0  0  0  0  0  0  0  0
    5.5924   -2.0707    0.3004 C   0  0  0  0  0  0  0  0  0  0  0  0
    4.5891   -1.3689   -0.5329 C   0  0  0  0  0  0  0  0  0  0  0  0
   -3.5382   -0.8742   -0.3345 C   0  0  0  0  0  0  0  0  0  0  0  0
   -4.8961   -0.7810   -0.3320 C   0  0  0  0  0  0  0  0  0  0  0  0
   -5.6514   -1.5764    0.5690 C   0  0  0  0  0  0  0  0  0  0  0  0
   -4.9345   -2.4171    1.4078 C   0  0  0  0  0  0  0  0  0  0  0  0
   -3.5578   -2.5105    1.4044 C   0  0  0  0  0  0  0  0  0  0  0  0
   -2.8400   -1.7011    0.4915 C   0  0  0  0  0  0  0  0  0  0  0  0
  1  2  2  0
  2  3  1  0
  3  4  1  0
  4  5  1  0
  6  5  1  1
  6  7  1  0
  7  8  1  0
  8  9  2  0
  8 10  1  0
 10 11  1  0
 11 12  1  0
 12 13  1  6
 12 14  1  0
 14 15  1  0
 15 16  1  0
 16 17  1  0
 17 18  1  0
 17 19  1  0
 19 20  1  0
  6 21  1  0
 21 22  2  0
 22 23  1  0
 23 24  2  0
 24 25  1  0
 25 26  2  0
 20 14  1  0
 26 21  1  0
M  END
>  <zinc_id>  (1) 
ZINC001667676459

>  <smiles>  (1) 
C=CCCC[C@@H](NC(=O)NC[C@H](C)N1CCC(C)CC1)c1ccccc1

$$$$
