
     RDKit          3D

 23 24  0  0  0  0  0  0  0  0999 V2000
    0.1374   -1.0230    1.9122 C   0  0  0  0  0  0  0  0  0  0  0  0
    0.0678   -1.5486    0.3502 C   0  0  1  0  0  0  0  0  0  0  0  0
   -1.5131   -1.4713    0.3094 N   0  0  0  0  0  0  0  0  0  0  0  0
   -2.1316   -0.2886    0.6865 C   0  0  0  0  0  0  0  0  0  0  0  0
   -1.3063    0.6414    1.0393 O   0  0  0  0  0  0  0  0  0  0  0  0
   -3.5677   -0.0394    0.7088 C   0  0  0  0  0  0  0  0  0  0  0  0
   -4.3450   -0.9362    0.3772 O   0  0  0  0  0  0  0  0  0  0  0  0
   -4.0179    1.2174    1.1093 N   0  0  0  0  0  0  0  0  0  0  0  0
   -5.3499    1.6242    1.1735 C   0  0  0  0  0  0  0  0  0  0  0  0
   -6.1431    1.6449   -0.0711 C   0  0  0  0  0  0  0  0  0  0  0  0
   -6.3595    0.3561   -0.8675 C   0  0  0  0  0  0  0  0  0  0  0  0
   -7.4758    0.9819   -0.0607 C   0  0  0  0  0  0  0  0  0  0  0  0
    0.2805   -0.0810   -0.3033 C   0  0  0  0  0  0  0  0  0  0  0  0
    1.5800    0.5451    0.1194 C   0  0  0  0  0  0  0  0  0  0  0  0
    2.1472   -0.5286   -0.5230 N   0  0  0  0  0  0  0  0  0  0  0  0
    3.0494   -1.4401   -0.2225 C   0  0  0  0  0  0  0  0  0  0  0  0
    4.4368   -0.9664   -0.0472 C   0  0  0  0  0  0  0  0  0  0  0  0
    5.3168   -1.8058    0.2183 O   0  0  0  0  0  0  0  0  0  0  0  0
    4.6936    0.4095   -0.1896 N   0  0  0  0  0  0  0  0  0  0  0  0
    6.0268    0.8654   -0.0203 C   0  0  0  0  0  0  0  0  0  0  0  0
    6.3624    2.2375   -0.1443 N   0  0  0  0  0  0  0  0  0  0  0  0
    6.9752    0.0651    0.2500 O   0  0  0  0  0  0  0  0  0  0  0  0
    1.1359   -0.4595   -1.4903 C   0  0  0  0  0  0  0  0  0  0  0  0
  2  1  1  1
  2  3  1  0
  3  4  1  0
  4  5  2  0
  4  6  1  0
  6  7  2  0
  6  8  1  0
  8  9  1  0
  9 10  1  0
 10 11  1  0
 11 12  1  0
  2 13  1  0
 13 14  1  0
 14 15  1  0
 15 16  1  0
 16 17  1  0
 17 18  2  0
 17 19  1  0
 19 20  1  0
 20 21  1  0
 20 22  2  0
 15 23  1  0
 12 10  1  0
 23 13  1  0
M  END
>  <zinc_id>  (1) 
ZINC001485529920

>  <smiles>  (1) 
C[C@@H](NC(=O)C(=O)NCC1CC1)C1CN(CC(=O)NC(N)=O)C1

$$$$
