
     RDKit          3D

 28 30  0  0  0  0  0  0  0  0999 V2000
   -3.8878   -1.0443   -3.1422 C   0  0  0  0  0  0  0  0  0  0  0  0
   -3.6313   -1.9253   -2.0838 O   0  0  0  0  0  0  0  0  0  0  0  0
   -2.9246   -1.3469   -1.1056 N   0  0  0  0  0  0  0  0  0  0  0  0
   -3.4290   -1.3484    0.2466 C   0  0  0  0  0  0  0  0  0  0  0  0
   -4.2370   -0.1410    0.5498 C   0  0  0  0  0  0  0  0  0  0  0  0
   -3.6449    0.8592    1.3300 C   0  0  0  0  0  0  0  0  0  0  0  0
   -4.3735    2.0014    1.6281 C   0  0  0  0  0  0  0  0  0  0  0  0
   -5.6705    2.1939    1.1824 C   0  0  0  0  0  0  0  0  0  0  0  0
   -6.5704    3.6401    1.5724 Cl  0  0  0  0  0  0  0  0  0  0  0  0
   -6.2371    1.1905    0.4112 C   0  0  0  0  0  0  0  0  0  0  0  0
   -5.5142    0.0511    0.1123 C   0  0  0  0  0  0  0  0  0  0  0  0
   -1.6768   -0.7339   -1.3623 C   0  0  0  0  0  0  0  0  0  0  0  0
   -1.1692   -0.7064   -2.5122 O   0  0  0  0  0  0  0  0  0  0  0  0
   -0.9183   -0.1081   -0.3281 N   0  0  0  0  0  0  0  0  0  0  0  0
    0.3563    0.5129   -0.6218 C   0  0  0  0  0  0  0  0  0  0  0  0
    1.2945   -0.7148   -1.2191 C   0  0  2  0  0  0  0  0  0  0  0  0
    1.1627   -1.5930    0.1720 C   0  0  0  0  0  0  0  0  0  0  0  0
    2.2113   -2.6583    0.0933 C   0  0  0  0  0  0  0  0  0  0  0  0
    3.5723   -1.9700    0.2312 C   0  0  0  0  0  0  0  0  0  0  0  0
    3.6647   -1.0743   -0.9304 N   0  0  0  0  0  0  0  0  0  0  0  0
    5.0080   -0.5675   -1.0784 C   0  0  0  0  0  0  0  0  0  0  0  0
    5.3524    0.1833    0.1520 C   0  0  0  0  0  0  0  0  0  0  0  0
    5.0849    1.5195    0.1862 C   0  0  0  0  0  0  0  0  0  0  0  0
    5.3801    2.2609    1.2905 C   0  0  0  0  0  0  0  0  0  0  0  0
    5.9566    1.6566    2.3890 C   0  0  0  0  0  0  0  0  0  0  0  0
    6.2254    0.2952    2.3445 C   0  0  0  0  0  0  0  0  0  0  0  0
    5.9209   -0.4373    1.2223 C   0  0  0  0  0  0  0  0  0  0  0  0
    2.6944    0.0051   -0.7299 C   0  0  0  0  0  0  0  0  0  0  0  0
  1  2  1  0
  2  3  1  0
  3  4  1  0
  4  5  1  0
  5  6  2  0
  6  7  1  0
  7  8  2  0
  8  9  1  0
  8 10  1  0
 10 11  2  0
  3 12  1  0
 12 13  2  0
 12 14  1  0
 14 15  1  0
 16 15  1  1
 16 17  1  0
 17 18  1  0
 18 19  1  0
 19 20  1  0
 20 21  1  0
 21 22  1  0
 22 23  2  0
 23 24  1  0
 24 25  2  0
 25 26  1  0
 26 27  2  0
 20 28  1  0
 11  5  1  0
 28 16  1  0
 27 22  1  0
M  END
>  <zinc_id>  (1) 
ZINC001667676397

>  <smiles>  (1) 
CON(Cc1ccc(Cl)cc1)C(=O)NC[C@@H]1CCCN(Cc2ccccc2)C1

$$$$
