
     RDKit          3D

 25 26  0  0  0  0  0  0  0  0999 V2000
    0.2518   -0.3373   -0.4417 O   0  0  0  0  0  0  0  0  0  0  0  0
    0.0647    0.5614   -1.3006 C   0  0  0  0  0  0  0  0  0  0  0  0
    1.0132    0.7773   -2.3386 N   0  0  0  0  0  0  0  0  0  0  0  0
    2.2062    0.0046   -2.4587 C   0  0  0  0  0  0  0  0  0  0  0  0
    3.0226    0.1962   -1.2335 C   0  0  0  0  0  0  0  0  0  0  0  0
    2.6333    1.0080   -0.1963 C   0  0  0  0  0  0  0  0  0  0  0  0
    3.3750    1.2034    0.9466 C   0  0  0  0  0  0  0  0  0  0  0  0
    2.9273    2.0208    1.9310 F   0  0  0  0  0  0  0  0  0  0  0  0
    4.5880    0.5269    1.0325 C   0  0  0  0  0  0  0  0  0  0  0  0
    5.3152    0.7205    2.1567 F   0  0  0  0  0  0  0  0  0  0  0  0
    5.0118   -0.2950    0.0141 C   0  0  0  0  0  0  0  0  0  0  0  0
    4.2239   -0.4560   -1.1166 C   0  0  0  0  0  0  0  0  0  0  0  0
    4.7787   -1.5869   -2.5481 Br  0  0  0  0  0  0  0  0  0  0  0  0
   -1.1244    1.3333   -1.1776 N   0  0  0  0  0  0  0  0  0  0  0  0
   -2.1183    1.1485   -0.1412 C   0  0  0  0  0  0  0  0  0  0  0  0
   -2.6962   -0.2081   -0.2033 C   0  0  0  0  0  0  0  0  0  0  0  0
   -2.2894   -1.1077   -1.1560 C   0  0  0  0  0  0  0  0  0  0  0  0
   -2.7876   -2.3844   -1.2715 C   0  0  0  0  0  0  0  0  0  0  0  0
   -3.7511   -2.8045   -0.3904 C   0  0  0  0  0  0  0  0  0  0  0  0
   -4.1822   -1.9281    0.5776 C   0  0  0  0  0  0  0  0  0  0  0  0
   -3.6629   -0.6298    0.6806 C   0  0  0  0  0  0  0  0  0  0  0  0
   -4.1181    0.3170    1.7145 C   0  0  0  0  0  0  0  0  0  0  0  0
   -3.0273    0.6857    2.5109 F   0  0  0  0  0  0  0  0  0  0  0  0
   -4.5868    1.4740    1.0854 F   0  0  0  0  0  0  0  0  0  0  0  0
   -5.0675   -0.2398    2.5368 F   0  0  0  0  0  0  0  0  0  0  0  0
  1  2  2  0
  2  3  1  0
  3  4  1  0
  4  5  1  0
  5  6  2  0
  6  7  1  0
  7  8  1  0
  7  9  2  0
  9 10  1  0
  9 11  1  0
 11 12  2  0
 12 13  1  0
  2 14  1  0
 14 15  1  0
 15 16  1  0
 16 17  2  0
 17 18  1  0
 18 19  2  0
 19 20  1  0
 20 21  2  0
 21 22  1  0
 22 23  1  0
 22 24  1  0
 22 25  1  0
 12  5  1  0
 21 16  1  0
M  END
>  <zinc_id>  (1) 
ZINC001667676404

>  <smiles>  (1) 
O=C(NCc1cc(F)c(F)cc1Br)NCc1ccccc1C(F)(F)F

$$$$
