
     RDKit          3D

 28 30  0  0  0  0  0  0  0  0999 V2000
   -3.6978    2.4542   -0.1024 C   0  0  0  0  0  0  0  0  0  0  0  0
   -3.5207    1.7450    1.0912 O   0  0  0  0  0  0  0  0  0  0  0  0
   -2.8128    0.6198    0.7746 N   0  0  0  0  0  0  0  0  0  0  0  0
   -3.3482   -0.6100    1.3053 C   0  0  0  0  0  0  0  0  0  0  0  0
   -4.4407   -1.1835    0.4796 C   0  0  0  0  0  0  0  0  0  0  0  0
   -5.5738   -0.4290    0.1688 C   0  0  0  0  0  0  0  0  0  0  0  0
   -6.6017   -0.9516   -0.5820 C   0  0  0  0  0  0  0  0  0  0  0  0
   -6.5518   -2.2526   -1.0606 C   0  0  0  0  0  0  0  0  0  0  0  0
   -7.8788   -2.9250   -2.0214 Cl  0  0  0  0  0  0  0  0  0  0  0  0
   -5.4287   -2.9958   -0.7518 C   0  0  0  0  0  0  0  0  0  0  0  0
   -4.3929   -2.4711    0.0037 C   0  0  0  0  0  0  0  0  0  0  0  0
   -1.6777    0.7615   -0.0329 C   0  0  0  0  0  0  0  0  0  0  0  0
   -1.3945    1.9462   -0.4448 O   0  0  0  0  0  0  0  0  0  0  0  0
   -0.7853   -0.2367   -0.4601 N   0  0  0  0  0  0  0  0  0  0  0  0
    0.3779    0.0916   -1.3200 C   0  0  0  0  0  0  0  0  0  0  0  0
    1.1035    1.1609   -0.3084 C   0  0  1  0  0  0  0  0  0  0  0  0
    1.2960    0.0543    0.8902 C   0  0  0  0  0  0  0  0  0  0  0  0
    2.1008    0.8842    1.8883 C   0  0  0  0  0  0  0  0  0  0  0  0
    3.4553    1.2376    1.3132 C   0  0  0  0  0  0  0  0  0  0  0  0
    3.3910    1.6599   -0.0399 N   0  0  0  0  0  0  0  0  0  0  0  0
    4.6742    1.9768   -0.5512 C   0  0  0  0  0  0  0  0  0  0  0  0
    5.6241    0.8506   -0.5004 C   0  0  0  0  0  0  0  0  0  0  0  0
    6.9990    1.0461   -0.4639 C   0  0  0  0  0  0  0  0  0  0  0  0
    7.8839   -0.0084   -0.4239 C   0  0  0  0  0  0  0  0  0  0  0  0
    7.3898   -1.2954   -0.4202 C   0  0  0  0  0  0  0  0  0  0  0  0
    6.0301   -1.5414   -0.4557 C   0  0  0  0  0  0  0  0  0  0  0  0
    5.1578   -0.4484   -0.4955 C   0  0  0  0  0  0  0  0  0  0  0  0
    2.6221    0.8602   -0.9315 C   0  0  0  0  0  0  0  0  0  0  0  0
  1  2  1  0
  2  3  1  0
  3  4  1  0
  4  5  1  0
  5  6  2  0
  6  7  1  0
  7  8  2  0
  8  9  1  0
  8 10  1  0
 10 11  2  0
  3 12  1  0
 12 13  2  0
 12 14  1  0
 14 15  1  0
 16 15  1  6
 16 17  1  0
 17 18  1  0
 18 19  1  0
 19 20  1  0
 20 21  1  0
 21 22  1  0
 22 23  2  0
 23 24  1  0
 24 25  2  0
 25 26  1  0
 26 27  2  0
 20 28  1  0
 11  5  1  0
 28 16  1  0
 27 22  1  0
M  END
>  <zinc_id>  (1) 
ZINC001667676398

>  <smiles>  (1) 
CON(Cc1ccc(Cl)cc1)C(=O)NC[C@H]1CCCN(Cc2ccccc2)C1

$$$$
