
     RDKit          3D

 27 28  0  0  0  0  0  0  0  0999 V2000
   -0.6601   -0.8251    1.7413 O   0  0  0  0  0  0  0  0  0  0  0  0
   -0.5999   -0.0553    0.8052 C   0  0  0  0  0  0  0  0  0  0  0  0
   -1.4165    1.0544    0.5802 N   0  0  0  0  0  0  0  0  0  0  0  0
   -2.7172    1.3919    1.1738 C   0  0  0  0  0  0  0  0  0  0  0  0
   -3.4458    0.1687    0.5301 C   0  0  0  0  0  0  0  0  0  0  0  0
   -3.0581   -1.1005    0.7071 C   0  0  0  0  0  0  0  0  0  0  0  0
   -3.7824   -2.1322    0.0854 C   0  0  0  0  0  0  0  0  0  0  0  0
   -4.8931   -1.7812   -0.6975 C   0  0  0  0  0  0  0  0  0  0  0  0
   -5.2739   -0.4662   -0.8660 C   0  0  0  0  0  0  0  0  0  0  0  0
   -4.5398    0.5099   -0.2496 C   0  0  0  0  0  0  0  0  0  0  0  0
   -4.7692    1.9662   -0.3815 C   0  0  0  0  0  0  0  0  0  0  0  0
   -3.4983    2.5318   -0.6533 F   0  0  0  0  0  0  0  0  0  0  0  0
   -5.3210    2.4871    0.7149 F   0  0  0  0  0  0  0  0  0  0  0  0
   -5.4990    2.2213   -1.5647 F   0  0  0  0  0  0  0  0  0  0  0  0
    0.3983   -0.3237   -0.2371 N   0  0  0  0  0  0  0  0  0  0  0  0
    1.2966   -1.1960   -0.4617 C   0  0  0  0  0  0  0  0  0  0  0  0
    2.5653   -1.6418   -0.0241 C   0  0  0  0  0  0  0  0  0  0  0  0
    2.5085   -1.9715    1.3971 F   0  0  0  0  0  0  0  0  0  0  0  0
    2.9699   -2.8424   -0.5710 F   0  0  0  0  0  0  0  0  0  0  0  0
    3.6313   -0.5780   -0.1094 C   0  0  0  0  0  0  0  0  0  0  0  0
    3.3205    0.7196   -0.3415 C   0  0  0  0  0  0  0  0  0  0  0  0
    4.3628    1.6567   -0.2635 C   0  0  0  0  0  0  0  0  0  0  0  0
    5.6692    1.2775    0.0457 C   0  0  0  0  0  0  0  0  0  0  0  0
    6.6589    2.2240    0.1237 F   0  0  0  0  0  0  0  0  0  0  0  0
    5.9550   -0.0385    0.2795 C   0  0  0  0  0  0  0  0  0  0  0  0
    4.9324   -0.9639    0.1983 C   0  0  0  0  0  0  0  0  0  0  0  0
    5.2056   -2.2928    0.3508 F   0  0  0  0  0  0  0  0  0  0  0  0
  1  2  2  0
  2  3  1  0
  3  4  1  0
  4  5  1  0
  5  6  2  0
  6  7  1  0
  7  8  2  0
  8  9  1  0
  9 10  2  0
 10 11  1  0
 11 12  1  0
 11 13  1  0
 11 14  1  0
  2 15  1  0
 15 16  1  0
 16 17  1  0
 17 18  1  0
 17 19  1  0
 17 20  1  0
 20 21  2  0
 21 22  1  0
 22 23  2  0
 23 24  1  0
 23 25  1  0
 25 26  2  0
 26 27  1  0
 10  5  1  0
 26 20  1  0
M  END
>  <zinc_id>  (1) 
ZINC001667676399

>  <smiles>  (1) 
O=C(NCc1ccccc1C(F)(F)F)NCC(F)(F)c1ccc(F)cc1F

$$$$
