
     RDKit          3D

 29 31  0  0  0  0  0  0  0  0999 V2000
   -4.9282   -2.7053    1.8089 C   0  0  0  0  0  0  0  0  0  0  0  0
   -5.6102   -1.0655    1.5750 S   0  0  0  0  0  0  0  0  0  0  0  0
   -7.0614   -1.0436    2.0029 O   0  0  0  0  0  0  0  0  0  0  0  0
   -4.8208   -0.1176    2.4379 O   0  0  0  0  0  0  0  0  0  0  0  0
   -5.5226   -0.6912   -0.0789 N   0  0  0  0  0  0  0  0  0  0  0  0
   -4.1220   -0.6950   -0.4746 C   0  0  0  0  0  0  0  0  0  0  0  0
   -4.2632   -0.3167   -2.0785 C   0  0  1  0  0  0  0  0  0  0  0  0
   -4.9994    1.1378   -1.8133 C   0  0  0  0  0  0  0  0  0  0  0  0
   -4.3156    1.7628   -0.8288 O   0  0  0  0  0  0  0  0  0  0  0  0
   -3.1704    2.4440   -1.2583 C   0  0  0  0  0  0  0  0  0  0  0  0
   -2.7412    1.6812   -2.5097 C   0  0  0  0  0  0  0  0  0  0  0  0
   -2.8205    0.3028   -2.1617 N   0  0  0  0  0  0  0  0  0  0  0  0
   -1.7544   -0.5623   -1.8851 C   0  0  0  0  0  0  0  0  0  0  0  0
   -2.0004   -1.7582   -1.5923 O   0  0  0  0  0  0  0  0  0  0  0  0
   -0.3933   -0.1714   -1.9142 N   0  0  0  0  0  0  0  0  0  0  0  0
    0.6174   -1.1625   -1.6083 C   0  0  0  0  0  0  0  0  0  0  0  0
    2.0108   -0.3078   -1.7543 C   0  0  1  0  0  0  0  0  0  0  0  0
    1.5925    0.7617   -0.5855 C   0  0  0  0  0  0  0  0  0  0  0  0
    1.3573   -0.0285    0.6602 C   0  0  0  0  0  0  0  0  0  0  0  0
    2.7713   -0.1600    1.2605 C   0  0  0  0  0  0  0  0  0  0  0  0
    3.5613   -0.5912    0.1548 N   0  0  0  0  0  0  0  0  0  0  0  0
    4.6571    0.1885   -0.2108 C   0  0  0  0  0  0  0  0  0  0  0  0
    5.6119    0.2930    0.8969 C   0  0  0  0  0  0  0  0  0  0  0  0
    6.6136   -0.6313    1.0177 C   0  0  0  0  0  0  0  0  0  0  0  0
    7.5343   -0.5557    2.0606 C   0  0  0  0  0  0  0  0  0  0  0  0
    7.4124    0.4672    2.9630 C   0  0  0  0  0  0  0  0  0  0  0  0
    6.4197    1.4169    2.8773 C   0  0  0  0  0  0  0  0  0  0  0  0
    5.5170    1.3025    1.8142 C   0  0  0  0  0  0  0  0  0  0  0  0
    2.8473   -1.3170   -0.7755 C   0  0  0  0  0  0  0  0  0  0  0  0
  1  2  1  0
  2  3  2  0
  2  4  2  0
  2  5  1  0
  5  6  1  0
  7  6  1  1
  7  8  1  0
  8  9  1  0
  9 10  1  0
 10 11  1  0
 11 12  1  0
 12 13  1  0
 13 14  2  0
 13 15  1  0
 15 16  1  0
 17 16  1  1
 17 18  1  0
 18 19  1  0
 19 20  1  0
 20 21  1  0
 21 22  1  0
 22 23  1  0
 23 24  2  0
 24 25  1  0
 25 26  2  0
 26 27  1  0
 27 28  2  0
 21 29  1  0
 12  7  1  0
 29 17  1  0
 28 23  1  0
M  END
>  <zinc_id>  (1) 
ZINC001667676414

>  <smiles>  (1) 
CS(=O)(=O)NC[C@H]1COCCN1C(=O)NC[C@H]1CCCN(Cc2ccccc2)C1

$$$$
