
     RDKit          3D

 24 26  0  0  0  0  0  0  0  0999 V2000
   -6.7295    1.5264   -0.8667 C   0  0  0  0  0  0  0  0  0  0  0  0
   -5.6700    0.5629   -0.4907 C   0  0  0  0  0  0  0  0  0  0  0  0
   -5.3356   -0.3574   -1.6097 C   0  0  0  0  0  0  0  0  0  0  0  0
   -4.1803   -1.3748   -1.1351 C   0  0  2  0  0  0  0  0  0  0  0  0
   -5.0413   -1.9961    0.0935 C   0  0  0  0  0  0  0  0  0  0  0  0
   -4.1543   -3.0298    0.7474 C   0  0  0  0  0  0  0  0  0  0  0  0
   -3.3261   -0.4042   -0.2349 C   0  0  0  0  0  0  0  0  0  0  0  0
   -3.5191    0.7681   -0.0806 O   0  0  0  0  0  0  0  0  0  0  0  0
   -2.2445   -1.0306    0.4268 N   0  0  0  0  0  0  0  0  0  0  0  0
   -1.4590   -0.0045    1.2885 C   0  0  1  0  0  0  0  0  0  0  0  0
   -1.6974   -0.8214    2.6811 C   0  0  0  0  0  0  0  0  0  0  0  0
    0.0025   -0.7184    1.0143 C   0  0  0  0  0  0  0  0  0  0  0  0
    0.9335    0.1992    1.8214 C   0  0  0  0  0  0  0  0  0  0  0  0
    0.6814    1.1969    0.7756 N   0  0  0  0  0  0  0  0  0  0  0  0
    1.8333    2.0051    0.4390 C   0  0  0  0  0  0  0  0  0  0  0  0
    2.8912    1.0406   -0.0404 C   0  0  0  0  0  0  0  0  0  0  0  0
    4.1879    1.1357    0.2905 N   0  0  0  0  0  0  0  0  0  0  0  0
    4.8660    0.1381   -0.2932 C   0  0  0  0  0  0  0  0  0  0  0  0
    6.3457   -0.1419   -0.1969 C   0  0  0  0  0  0  0  0  0  0  0  0
    7.1689    0.7715   -1.0630 C   0  0  0  0  0  0  0  0  0  0  0  0
    7.1783    1.0113    0.4287 C   0  0  0  0  0  0  0  0  0  0  0  0
    3.9496   -0.5604   -0.9831 N   0  0  0  0  0  0  0  0  0  0  0  0
    2.7554   -0.0128   -0.8290 N   0  0  0  0  0  0  0  0  0  0  0  0
    0.5635    0.0965   -0.1583 C   0  0  0  0  0  0  0  0  0  0  0  0
  1  2  1  0
  2  3  1  0
  4  3  1  6
  4  5  1  0
  5  6  1  0
  4  7  1  0
  7  8  2  0
  7  9  1  0
  9 10  1  0
 10 11  1  1
 10 12  1  0
 12 13  1  0
 13 14  1  0
 14 15  1  0
 15 16  1  0
 16 17  2  0
 17 18  1  0
 18 19  1  0
 19 20  1  0
 20 21  1  0
 18 22  2  0
 22 23  1  0
 14 24  1  0
 24 12  1  0
 23 16  1  0
 21 19  1  0
M  END
>  <zinc_id>  (1) 
ZINC001485529945

>  <smiles>  (1) 
CCC[C@H](CC)C(=O)N[C@@H](C)C1CN(Cc2nc(C3CC3)n[nH]2)C1

$$$$
