
     RDKit          3D

 32 35  0  0  0  0  0  0  0  0999 V2000
    7.6032   -0.6999    1.4578 C   0  0  0  0  0  0  0  0  0  0  0  0
    8.3335    0.2965    0.5724 C   0  0  0  0  0  0  0  0  0  0  0  0
    8.4453   -0.2396   -0.8411 C   0  0  0  0  0  0  0  0  0  0  0  0
    7.0836   -0.4393   -1.4346 C   0  0  0  0  0  0  0  0  0  0  0  0
    6.1237    0.3093   -0.6745 N   0  0  0  0  0  0  0  0  0  0  0  0
    4.8772   -0.3081   -0.3507 C   0  0  0  0  0  0  0  0  0  0  0  0
    3.9000    0.3664    0.3456 C   0  0  0  0  0  0  0  0  0  0  0  0
    2.6805   -0.1881    0.6828 C   0  0  0  0  0  0  0  0  0  0  0  0
    2.4471   -1.4746    0.2980 C   0  0  0  0  0  0  0  0  0  0  0  0
    1.1833   -2.2134    0.5851 C   0  0  0  0  0  0  0  0  0  0  0  0
    0.2897   -1.3163    1.2852 N   0  0  0  0  0  0  0  0  0  0  0  0
   -0.3656   -0.3200    0.5114 C   0  0  0  0  0  0  0  0  0  0  0  0
   -0.2260   -0.1688   -0.7108 O   0  0  0  0  0  0  0  0  0  0  0  0
   -1.2357    0.5575    1.1820 N   0  0  0  0  0  0  0  0  0  0  0  0
   -1.9383    1.5956    0.4602 C   0  0  0  0  0  0  0  0  0  0  0  0
   -2.7858    2.3141    1.6438 C   0  0  1  0  0  0  0  0  0  0  0  0
   -3.4773    3.4032    0.6667 C   0  0  0  0  0  0  0  0  0  0  0  0
   -4.9582    3.3469    0.8795 C   0  0  0  0  0  0  0  0  0  0  0  0
   -5.4489    2.1686    0.0340 C   0  0  0  0  0  0  0  0  0  0  0  0
   -4.4993    1.1487    0.3050 N   0  0  0  0  0  0  0  0  0  0  0  0
   -4.4927   -0.0173   -0.4295 C   0  0  0  0  0  0  0  0  0  0  0  0
   -5.7383   -0.7862   -0.3563 C   0  0  0  0  0  0  0  0  0  0  0  0
   -6.7899   -0.2704    0.3708 C   0  0  0  0  0  0  0  0  0  0  0  0
   -7.9862   -0.9530    0.4753 C   0  0  0  0  0  0  0  0  0  0  0  0
   -8.1096   -2.1506   -0.1561 C   0  0  0  0  0  0  0  0  0  0  0  0
   -7.0843   -2.7015   -0.8925 C   0  0  0  0  0  0  0  0  0  0  0  0
   -5.8912   -1.9979   -0.9835 C   0  0  0  0  0  0  0  0  0  0  0  0
   -3.9904    1.2328    1.5935 C   0  0  0  0  0  0  0  0  0  0  0  0
    3.4114   -2.1886   -0.4074 C   0  0  0  0  0  0  0  0  0  0  0  0
    4.6040   -1.6105   -0.7236 C   0  0  0  0  0  0  0  0  0  0  0  0
    6.3723    1.6607   -0.2252 C   0  0  0  0  0  0  0  0  0  0  0  0
    7.6628    1.6436    0.5745 C   0  0  0  0  0  0  0  0  0  0  0  0
  1  2  1  0
  2  3  1  0
  3  4  1  0
  4  5  1  0
  5  6  1  0
  6  7  2  0
  7  8  1  0
  8  9  2  0
  9 10  1  0
 10 11  1  0
 11 12  1  0
 12 13  2  0
 12 14  1  0
 14 15  1  0
 16 15  1  6
 16 17  1  0
 17 18  1  0
 18 19  1  0
 19 20  1  0
 20 21  1  0
 21 22  1  0
 22 23  2  0
 23 24  1  0
 24 25  2  0
 25 26  1  0
 26 27  2  0
 20 28  1  0
  9 29  1  0
 29 30  2  0
  5 31  1  0
 31 32  1  0
 32  2  1  0
 30  6  1  0
 28 16  1  0
 27 22  1  0
M  END
>  <zinc_id>  (1) 
ZINC001667676447

>  <smiles>  (1) 
CC1CCN(c2ccc(CNC(=O)NC[C@H]3CCCN(Cc4ccccc4)C3)cc2)CC1

$$$$
