
     RDKit          3D

 23 24  0  0  0  0  0  0  0  0999 V2000
    5.4007    3.3440   -0.4912 C   0  0  0  0  0  0  0  0  0  0  0  0
    5.8332    2.1629   -0.1843 C   0  0  0  0  0  0  0  0  0  0  0  0
    5.9576    1.4982    1.0824 C   0  0  0  0  0  0  0  0  0  0  0  0
    5.2578    0.2669    1.3185 C   0  0  0  0  0  0  0  0  0  0  0  0
    3.6466    0.4568    1.1080 C   0  0  1  0  0  0  0  0  0  0  0  0
    3.8910    0.9188   -0.4553 C   0  0  0  0  0  0  0  0  0  0  0  0
    3.4156   -1.0761    0.8048 N   0  0  0  0  0  0  0  0  0  0  0  0
    2.0066   -1.2192    1.1873 C   0  0  0  0  0  0  0  0  0  0  0  0
    1.7112   -0.4374   -0.0035 C   0  0  0  0  0  0  0  0  0  0  0  0
    0.6420   -1.0751   -1.0342 C   0  0  2  0  0  0  0  0  0  0  0  0
    0.7201    0.1814   -2.0700 C   0  0  0  0  0  0  0  0  0  0  0  0
   -0.6891   -0.4425   -0.4026 N   0  0  0  0  0  0  0  0  0  0  0  0
   -1.7908   -1.3195   -0.4638 C   0  0  0  0  0  0  0  0  0  0  0  0
   -1.5674   -2.5144   -0.9716 O   0  0  0  0  0  0  0  0  0  0  0  0
   -3.1322   -1.0811   -0.0491 C   0  0  0  0  0  0  0  0  0  0  0  0
   -4.0535   -2.1200    0.1927 C   0  0  0  0  0  0  0  0  0  0  0  0
   -5.3237   -1.6142    0.3950 C   0  0  0  0  0  0  0  0  0  0  0  0
   -5.7371   -0.4030    0.3894 C   0  0  0  0  0  0  0  0  0  0  0  0
   -4.5295    0.7995    0.0883 C   0  0  0  0  0  0  0  0  0  0  0  0
   -5.6430    1.7636    0.2323 O   0  0  0  0  0  0  0  0  0  0  0  0
   -5.2389    3.0993    0.0975 C   0  0  0  0  0  0  0  0  0  0  0  0
   -3.7263    0.0947   -0.0150 N   0  0  0  0  0  0  0  0  0  0  0  0
    2.9490   -1.2835   -0.5143 C   0  0  0  0  0  0  0  0  0  0  0  0
  1  2  2  0
  2  3  1  0
  3  4  1  0
  4  5  1  0
  5  6  1  6
  5  7  1  0
  7  8  1  0
  8  9  1  0
  9 10  1  0
 10 11  1  6
 10 12  1  0
 12 13  1  0
 13 14  2  0
 13 15  1  0
 15 16  2  0
 16 17  1  0
 17 18  2  0
 18 19  1  0
 19 20  1  0
 20 21  1  0
 19 22  2  0
  9 23  1  0
 23  7  1  0
 22 15  1  0
M  END
>  <zinc_id>  (1) 
ZINC001485529925

>  <smiles>  (1) 
C=CCC[C@@H](C)N1CC([C@H](C)NC(=O)c2cccc(OC)n2)C1

$$$$
