
     RDKit          3D

 22 23  0  0  0  0  0  0  0  0999 V2000
   -5.7263    2.0086   -0.6295 C   0  0  0  0  0  0  0  0  0  0  0  0
   -4.3840    2.1881    0.0550 C   0  0  0  0  0  0  0  0  0  0  0  0
   -4.1489    1.0174    0.9541 C   0  0  0  0  0  0  0  0  0  0  0  0
   -4.1576   -0.2986    0.0292 C   0  0  2  0  0  0  0  0  0  0  0  0
   -3.8817   -1.3374    1.2413 C   0  0  0  0  0  0  0  0  0  0  0  0
   -3.8656   -2.6773    0.4891 C   0  0  0  0  0  0  0  0  0  0  0  0
   -2.6925   -0.2059   -0.4764 C   0  0  0  0  0  0  0  0  0  0  0  0
   -2.1023    0.8630   -0.3064 O   0  0  0  0  0  0  0  0  0  0  0  0
   -2.0847   -1.3008   -1.1017 N   0  0  0  0  0  0  0  0  0  0  0  0
   -0.6306   -0.9874   -1.5420 C   0  0  2  0  0  0  0  0  0  0  0  0
   -0.4758   -2.4312   -2.3448 C   0  0  0  0  0  0  0  0  0  0  0  0
    0.0484   -1.5644   -0.1716 C   0  0  0  0  0  0  0  0  0  0  0  0
    1.5703   -1.3552   -0.3808 C   0  0  0  0  0  0  0  0  0  0  0  0
    1.3408   -0.0289   -0.1103 N   0  0  0  0  0  0  0  0  0  0  0  0
    1.9216    1.0994   -0.5710 C   0  0  0  0  0  0  0  0  0  0  0  0
    3.3582    1.1026   -0.2440 C   0  0  0  0  0  0  0  0  0  0  0  0
    4.0887    2.1819    0.0486 N   0  0  0  0  0  0  0  0  0  0  0  0
    5.3501    1.7972    0.2824 N   0  0  0  0  0  0  0  0  0  0  0  0
    5.4344    0.4543    0.1394 C   0  0  0  0  0  0  0  0  0  0  0  0
    6.6595   -0.3291    0.3139 C   0  0  0  0  0  0  0  0  0  0  0  0
    4.1851    0.0566   -0.1863 N   0  0  0  0  0  0  0  0  0  0  0  0
    0.1927   -0.2527    0.6316 C   0  0  0  0  0  0  0  0  0  0  0  0
  1  2  1  0
  2  3  1  0
  4  3  1  1
  4  5  1  0
  5  6  1  0
  4  7  1  0
  7  8  2  0
  7  9  1  0
  9 10  1  0
 10 11  1  6
 10 12  1  0
 12 13  1  0
 13 14  1  0
 14 15  1  0
 15 16  1  0
 16 17  2  0
 17 18  1  0
 18 19  1  0
 19 20  1  0
 19 21  2  0
 14 22  1  0
 22 12  1  0
 21 16  1  0
M  END
>  <zinc_id>  (1) 
ZINC001485529959

>  <smiles>  (1) 
CCC[C@H](CC)C(=O)N[C@H](C)C1CN(Cc2n[nH]c(C)n2)C1

$$$$
