
     RDKit          3D

 25 26  0  0  0  0  0  0  0  0999 V2000
    7.2244    0.8285    0.7277 C   0  0  0  0  0  0  0  0  0  0  0  0
    6.3206   -0.1857    0.1007 C   0  0  0  0  0  0  0  0  0  0  0  0
    5.7203    0.3471   -1.1809 C   0  0  0  0  0  0  0  0  0  0  0  0
    4.5274   -0.4978   -1.5100 C   0  0  0  0  0  0  0  0  0  0  0  0
    3.4570   -0.3657   -0.5320 N   0  0  0  0  0  0  0  0  0  0  0  0
    2.6891   -1.7222   -0.7586 C   0  0  1  0  0  0  0  0  0  0  0  0
    3.9718   -2.6443   -0.2939 C   0  0  0  0  0  0  0  0  0  0  0  0
    2.0031   -1.7492    0.7339 C   0  0  0  0  0  0  0  0  0  0  0  0
    1.2135   -0.5776    0.8414 N   0  0  0  0  0  0  0  0  0  0  0  0
    0.1351   -0.3623   -0.0816 C   0  0  0  0  0  0  0  0  0  0  0  0
   -0.0073   -1.2607   -0.9194 O   0  0  0  0  0  0  0  0  0  0  0  0
   -0.6986    0.7330   -0.0775 N   0  0  0  0  0  0  0  0  0  0  0  0
   -1.7762    1.0117   -0.9090 C   0  0  0  0  0  0  0  0  0  0  0  0
   -2.8699    0.0177   -0.7419 C   0  0  1  0  0  0  0  0  0  0  0  0
   -2.4449   -1.2515   -1.0689 O   0  0  0  0  0  0  0  0  0  0  0  0
   -3.2605    0.0455    0.7316 C   0  0  0  0  0  0  0  0  0  0  0  0
   -3.4036    1.4843    1.2141 C   0  0  0  0  0  0  0  0  0  0  0  0
   -4.8469    1.9306    1.1756 C   0  0  0  0  0  0  0  0  0  0  0  0
   -5.5760    1.3459   -0.0093 C   0  0  0  0  0  0  0  0  0  0  0  0
   -5.8963   -0.1135    0.1719 C   0  0  0  0  0  0  0  0  0  0  0  0
   -6.8917    2.0738   -0.1855 C   0  0  0  0  0  0  0  0  0  0  0  0
   -4.7392    1.6058   -1.2419 C   0  0  0  0  0  0  0  0  0  0  0  0
   -4.0711    0.3178   -1.6186 C   0  0  0  0  0  0  0  0  0  0  0  0
    3.9119   -0.3083    0.8027 C   0  0  0  0  0  0  0  0  0  0  0  0
    5.3078   -0.7030    1.0606 C   0  0  0  0  0  0  0  0  0  0  0  0
  1  2  1  0
  2  3  1  0
  3  4  1  0
  4  5  1  0
  5  6  1  0
  6  7  1  1
  6  8  1  0
  8  9  1  0
  9 10  1  0
 10 11  2  0
 10 12  1  0
 12 13  1  0
 13 14  1  0
 14 15  1  6
 14 16  1  0
 16 17  1  0
 17 18  1  0
 18 19  1  0
 19 20  1  0
 19 21  1  0
 19 22  1  0
 22 23  1  0
  5 24  1  0
 24 25  1  0
 25  2  1  0
 23 14  1  0
M  END
>  <zinc_id>  (1) 
ZINC001667676409

>  <smiles>  (1) 
CC1CCN([C@@H](C)CNC(=O)NC[C@@]2(O)CCCC(C)(C)CC2)CC1

$$$$
