
     RDKit          3D

 32 35  0  0  0  0  0  0  0  0999 V2000
    7.8787    3.4846   -2.0979 C   0  0  0  0  0  0  0  0  0  0  0  0
    7.4399    2.6762   -0.8883 C   0  0  0  0  0  0  0  0  0  0  0  0
    5.9238    2.8862   -0.7751 C   0  0  0  0  0  0  0  0  0  0  0  0
    5.5009    2.1720    0.5150 C   0  0  0  0  0  0  0  0  0  0  0  0
    5.8740    0.7861    0.3500 N   0  0  0  0  0  0  0  0  0  0  0  0
    4.8812   -0.2097    0.4566 C   0  0  0  0  0  0  0  0  0  0  0  0
    5.2128   -1.5506    0.2493 C   0  0  0  0  0  0  0  0  0  0  0  0
    4.2714   -2.5322    0.3500 C   0  0  0  0  0  0  0  0  0  0  0  0
    2.9677   -2.1998    0.6620 C   0  0  0  0  0  0  0  0  0  0  0  0
    1.9106   -3.2191    0.7800 C   0  0  0  0  0  0  0  0  0  0  0  0
    0.7113   -2.6126    1.2554 N   0  0  0  0  0  0  0  0  0  0  0  0
   -0.1225   -1.8162    0.4037 C   0  0  0  0  0  0  0  0  0  0  0  0
    0.1617   -1.6104   -0.8024 O   0  0  0  0  0  0  0  0  0  0  0  0
   -1.3132   -1.2090    0.8479 N   0  0  0  0  0  0  0  0  0  0  0  0
   -2.1913   -0.3967    0.0378 C   0  0  0  0  0  0  0  0  0  0  0  0
   -2.7016   -1.3237   -1.1892 C   0  0  2  0  0  0  0  0  0  0  0  0
   -3.6193   -0.1771   -1.8740 C   0  0  0  0  0  0  0  0  0  0  0  0
   -4.8497   -0.9191   -2.3621 C   0  0  0  0  0  0  0  0  0  0  0  0
   -5.7930   -1.0156   -1.1780 C   0  0  0  0  0  0  0  0  0  0  0  0
   -4.9050   -1.1783   -0.0120 N   0  0  0  0  0  0  0  0  0  0  0  0
   -4.5400    0.1439    0.4068 C   0  0  0  0  0  0  0  0  0  0  0  0
   -5.6171    1.0034    0.7974 C   0  0  0  0  0  0  0  0  0  0  0  0
   -5.3741    2.2952    1.1896 C   0  0  0  0  0  0  0  0  0  0  0  0
   -6.4333    3.1354    1.5730 C   0  0  0  0  0  0  0  0  0  0  0  0
   -7.7156    2.6503    1.5509 C   0  0  0  0  0  0  0  0  0  0  0  0
   -7.9786    1.3631    1.1623 C   0  0  0  0  0  0  0  0  0  0  0  0
   -6.9142    0.5613    0.7910 C   0  0  0  0  0  0  0  0  0  0  0  0
   -3.8900   -2.0449   -0.3749 C   0  0  0  0  0  0  0  0  0  0  0  0
    2.6465   -0.8815    0.8647 C   0  0  0  0  0  0  0  0  0  0  0  0
    3.5996    0.1027    0.7617 C   0  0  0  0  0  0  0  0  0  0  0  0
    7.2311    0.4311    0.0840 C   0  0  0  0  0  0  0  0  0  0  0  0
    7.7475    1.2051   -1.0900 C   0  0  0  0  0  0  0  0  0  0  0  0
  1  2  1  0
  2  3  1  0
  3  4  1  0
  4  5  1  0
  5  6  1  0
  6  7  2  0
  7  8  1  0
  8  9  2  0
  9 10  1  0
 10 11  1  0
 11 12  1  0
 12 13  2  0
 12 14  1  0
 14 15  1  0
 16 15  1  1
 16 17  1  0
 17 18  1  0
 18 19  1  0
 19 20  1  0
 20 21  1  0
 21 22  1  0
 22 23  2  0
 23 24  1  0
 24 25  2  0
 25 26  1  0
 26 27  2  0
 20 28  1  0
  9 29  1  0
 29 30  2  0
  5 31  1  0
 31 32  1  0
 32  2  1  0
 30  6  1  0
 28 16  1  0
 27 22  1  0
M  END
>  <zinc_id>  (1) 
ZINC001667676448

>  <smiles>  (1) 
CC1CCN(c2ccc(CNC(=O)NC[C@@H]3CCCN(Cc4ccccc4)C3)cc2)CC1

$$$$
