
     RDKit          3D

 33 36  0  0  0  0  0  0  0  0999 V2000
    8.1663   -0.6848    0.5693 C   0  0  0  0  0  0  0  0  0  0  0  0
    7.4907    0.5473   -0.0408 C   0  0  0  0  0  0  0  0  0  0  0  0
    7.8104    0.5490   -1.5402 C   0  0  0  0  0  0  0  0  0  0  0  0
    7.9417    1.8065    0.6042 C   0  0  0  0  0  0  0  0  0  0  0  0
    6.1001    0.3277    0.0602 O   0  0  0  0  0  0  0  0  0  0  0  0
    5.5262   -0.7769   -0.5666 C   0  0  0  0  0  0  0  0  0  0  0  0
    6.3662   -1.5112   -1.1991 O   0  0  0  0  0  0  0  0  0  0  0  0
    4.1602   -1.0756   -0.5221 N   0  0  0  0  0  0  0  0  0  0  0  0
    3.4841   -2.1387   -1.1036 C   0  0  0  0  0  0  0  0  0  0  0  0
    2.1340   -2.2943   -0.4216 C   0  0  0  0  0  0  0  0  0  0  0  0
    1.8278   -0.7104   -0.7088 C   0  0  2  0  0  0  0  0  0  0  0  0
    3.1683   -0.1709    0.2496 C   0  0  1  0  0  0  0  0  0  0  0  0
    2.9937   -1.2260    1.4910 C   0  0  0  0  0  0  0  0  0  0  0  0
    1.8979   -0.7242    2.3659 C   0  0  0  0  0  0  0  0  0  0  0  0
    0.6708   -1.2004    1.5616 C   0  0  0  0  0  0  0  0  0  0  0  0
    0.7326   -0.4948    0.3661 N   0  0  0  0  0  0  0  0  0  0  0  0
   -0.2201    0.5178   -0.0038 C   0  0  0  0  0  0  0  0  0  0  0  0
   -0.0598    1.0878   -1.1121 O   0  0  0  0  0  0  0  0  0  0  0  0
   -1.2845    0.8473    0.8506 N   0  0  0  0  0  0  0  0  0  0  0  0
   -2.2752    1.7075    0.7505 C   0  0  0  0  0  0  0  0  0  0  0  0
   -3.3863    1.5800   -0.3928 C   0  0  1  0  0  0  0  0  0  0  0  0
   -2.4804    1.7171   -1.7335 C   0  0  0  0  0  0  0  0  0  0  0  0
   -3.4826    1.3897   -2.8162 C   0  0  0  0  0  0  0  0  0  0  0  0
   -4.0050   -0.0270   -2.6869 C   0  0  0  0  0  0  0  0  0  0  0  0
   -4.4698   -0.3182   -1.3435 N   0  0  0  0  0  0  0  0  0  0  0  0
   -5.6152    0.5545   -1.0751 C   0  0  0  0  0  0  0  0  0  0  0  0
   -6.1577    0.3218    0.2867 C   0  0  0  0  0  0  0  0  0  0  0  0
   -7.1416   -0.6105    0.4974 C   0  0  0  0  0  0  0  0  0  0  0  0
   -7.6169   -0.7936    1.7826 C   0  0  0  0  0  0  0  0  0  0  0  0
   -7.1080   -0.0529    2.8181 C   0  0  0  0  0  0  0  0  0  0  0  0
   -6.1324    0.8651    2.5807 C   0  0  0  0  0  0  0  0  0  0  0  0
   -5.6521    1.0595    1.3238 C   0  0  0  0  0  0  0  0  0  0  0  0
   -3.3832   -0.0682   -0.4124 C   0  0  0  0  0  0  0  0  0  0  0  0
  1  2  1  0
  2  3  1  0
  2  4  1  0
  2  5  1  0
  5  6  1  0
  6  7  2  0
  6  8  1  0
  8  9  1  0
  9 10  1  0
 11 10  1  1
 11 12  1  0
 12 13  1  1
 13 14  1  0
 14 15  1  0
 15 16  1  0
 16 17  1  0
 17 18  2  0
 17 19  1  0
 19 20  1  0
 21 20  1  1
 21 22  1  0
 22 23  1  0
 23 24  1  0
 24 25  1  0
 25 26  1  0
 26 27  1  0
 27 28  2  0
 28 29  1  0
 29 30  2  0
 30 31  1  0
 31 32  2  0
 25 33  1  0
 12  8  1  0
 33 21  1  0
 16 11  1  0
 32 27  1  0
M  END
>  <zinc_id>  (1) 
ZINC001667676405

>  <smiles>  (1) 
CC(C)(C)OC(=O)N1CC[C@@H]2[C@H]1CCCN2C(=O)NC[C@H]1CCCN(Cc2ccccc2)C1

$$$$
