
     RDKit          3D

 25 27  0  0  0  0  0  0  0  0999 V2000
   -7.0439    2.7933   -0.1596 C   0  0  0  0  0  0  0  0  0  0  0  0
   -6.1581    2.0576    0.4420 C   0  0  0  0  0  0  0  0  0  0  0  0
   -6.1005    0.6008    0.5856 C   0  0  0  0  0  0  0  0  0  0  0  0
   -4.8919    0.0008    0.0045 N   0  0  0  0  0  0  0  0  0  0  0  0
   -4.7638   -0.4726   -1.3440 C   0  0  0  0  0  0  0  0  0  0  0  0
   -3.2734   -0.5430   -1.6998 C   0  0  0  0  0  0  0  0  0  0  0  0
   -2.6169    0.2212   -0.4246 C   0  0  2  0  0  0  0  0  0  0  0  0
   -1.5599   -0.8012   -0.0551 N   0  0  0  0  0  0  0  0  0  0  0  0
   -0.6915   -0.6754   -1.2466 C   0  0  0  0  0  0  0  0  0  0  0  0
   -0.1290   -2.0057   -0.6858 C   0  0  0  0  0  0  0  0  0  0  0  0
    0.2529   -1.4710    0.7868 C   0  0  1  0  0  0  0  0  0  0  0  0
    0.8669   -2.8553    1.3292 C   0  0  0  0  0  0  0  0  0  0  0  0
    1.3722   -0.6285    0.7267 N   0  0  0  0  0  0  0  0  0  0  0  0
    2.6477   -0.3617    0.5904 C   0  0  0  0  0  0  0  0  0  0  0  0
    3.3425   -1.4364    0.3986 O   0  0  0  0  0  0  0  0  0  0  0  0
    3.2577    1.0047    0.6441 C   0  0  0  0  0  0  0  0  0  0  0  0
    4.6538    1.1693    0.5384 C   0  0  0  0  0  0  0  0  0  0  0  0
    5.5283    1.4095    1.5750 N   0  0  0  0  0  0  0  0  0  0  0  0
    6.7420    1.5271    1.1161 O   0  0  0  0  0  0  0  0  0  0  0  0
    6.7742    1.3872   -0.1648 N   0  0  0  0  0  0  0  0  0  0  0  0
    5.4885    1.1594   -0.5614 C   0  0  0  0  0  0  0  0  0  0  0  0
    5.1489    0.9589   -1.9960 C   0  0  0  0  0  0  0  0  0  0  0  0
   -1.7254   -2.1075   -0.5776 C   0  0  0  0  0  0  0  0  0  0  0  0
   -3.6874   -0.2338    0.6098 C   0  0  0  0  0  0  0  0  0  0  0  0
   -3.4337   -0.6978    1.7144 O   0  0  0  0  0  0  0  0  0  0  0  0
  1  2  2  0
  2  3  1  0
  3  4  1  0
  4  5  1  0
  5  6  1  0
  6  7  1  0
  7  8  1  1
  8  9  1  0
  9 10  1  0
 10 11  1  0
 11 12  1  1
 11 13  1  0
 13 14  1  0
 14 15  2  0
 14 16  1  0
 16 17  1  0
 17 18  2  0
 18 19  1  0
 19 20  1  0
 20 21  2  0
 21 22  1  0
 10 23  1  0
  7 24  1  0
 24 25  2  0
 24  4  1  0
 23  8  1  0
 21 17  1  0
M  END
>  <zinc_id>  (1) 
ZINC001485529928

>  <smiles>  (1) 
C=CCN1CC[C@H](N2CC([C@@H](C)NC(=O)Cc3nonc3C)C2)C1=O

$$$$
