
     RDKit          3D

 24 25  0  0  0  0  0  0  0  0999 V2000
    7.4352    1.6312   -0.3164 C   0  0  0  0  0  0  0  0  0  0  0  0
    6.6059    1.0976    0.5557 C   0  0  0  0  0  0  0  0  0  0  0  0
    5.4519    0.2784    0.0403 C   0  0  0  0  0  0  0  0  0  0  0  0
    5.6251   -0.9876    0.5739 O   0  0  0  0  0  0  0  0  0  0  0  0
    4.6011   -1.7695    0.1283 C   0  0  0  0  0  0  0  0  0  0  0  0
    3.2552   -1.2890    0.5307 C   0  0  0  0  0  0  0  0  0  0  0  0
    2.9359    0.0562    0.0362 N   0  0  0  0  0  0  0  0  0  0  0  0
    2.7719    0.0919   -1.3843 C   0  0  0  0  0  0  0  0  0  0  0  0
    1.2962    0.4531   -1.1581 C   0  0  0  0  0  0  0  0  0  0  0  0
    0.4105   -0.7181   -1.8395 C   0  0  1  0  0  0  0  0  0  0  0  0
    0.9560   -1.9996   -0.9915 C   0  0  0  0  0  0  0  0  0  0  0  0
   -0.8920   -0.3976   -1.0656 N   0  0  0  0  0  0  0  0  0  0  0  0
   -1.1875   -0.8961    0.1717 C   0  0  0  0  0  0  0  0  0  0  0  0
   -0.3120   -1.6626    0.6714 O   0  0  0  0  0  0  0  0  0  0  0  0
   -2.3541   -0.6930    1.0255 C   0  0  0  0  0  0  0  0  0  0  0  0
   -3.3813    0.1368    0.5365 N   0  0  0  0  0  0  0  0  0  0  0  0
   -3.3046    1.5563    0.8269 C   0  0  0  0  0  0  0  0  0  0  0  0
   -4.6441    2.1564    1.1940 C   0  0  0  0  0  0  0  0  0  0  0  0
   -5.6923    1.6803    0.2596 C   0  0  0  0  0  0  0  0  0  0  0  0
   -6.6787    2.4510    0.0022 O   0  0  0  0  0  0  0  0  0  0  0  0
   -5.6347    0.3940   -0.3600 N   0  0  0  0  0  0  0  0  0  0  0  0
   -4.4713   -0.3866   -0.2234 C   0  0  0  0  0  0  0  0  0  0  0  0
   -4.3010   -1.5130   -0.7151 O   0  0  0  0  0  0  0  0  0  0  0  0
    1.5085    0.3294    0.2625 C   0  0  0  0  0  0  0  0  0  0  0  0
  1  2  2  0
  2  3  1  0
  3  4  1  0
  4  5  1  0
  5  6  1  0
  6  7  1  0
  7  8  1  0
  8  9  1  0
  9 10  1  0
 10 11  1  1
 10 12  1  0
 12 13  1  0
 13 14  2  0
 13 15  1  0
 15 16  1  0
 16 17  1  0
 17 18  1  0
 18 19  1  0
 19 20  2  0
 19 21  1  0
 21 22  1  0
 22 23  2  0
  9 24  1  0
 24  7  1  0
 22 16  1  0
M  END
>  <zinc_id>  (1) 
ZINC001485529974

>  <smiles>  (1) 
C=CCOCCN1CC([C@@H](C)NC(=O)CN2CCC(=O)NC2=O)C1

$$$$
