
     RDKit          3D

 26 27  0  0  0  0  0  0  0  0999 V2000
   -3.6500    4.6007   -0.9658 C   0  0  0  0  0  0  0  0  0  0  0  0
   -3.2768    3.3962   -0.5585 C   0  0  0  0  0  0  0  0  0  0  0  0
   -4.2189    2.3335   -0.1248 C   0  0  0  0  0  0  0  0  0  0  0  0
   -4.0354    1.1452   -1.0216 C   0  0  0  0  0  0  0  0  0  0  0  0
   -2.5999    0.6063   -0.9517 C   0  0  0  0  0  0  0  0  0  0  0  0
   -2.3964    0.1991    0.6025 C   0  0  2  0  0  0  0  0  0  0  0  0
   -0.9665   -0.3049    0.5373 N   0  0  0  0  0  0  0  0  0  0  0  0
   -0.1273    0.0587   -0.5214 C   0  0  0  0  0  0  0  0  0  0  0  0
   -0.5973    0.7956   -1.4113 O   0  0  0  0  0  0  0  0  0  0  0  0
    1.2139   -0.3391   -0.6701 N   0  0  0  0  0  0  0  0  0  0  0  0
    1.9935    0.0617   -1.7663 C   0  0  0  0  0  0  0  0  0  0  0  0
    3.4945   -0.6050   -1.5625 C   0  0  2  0  0  0  0  0  0  0  0  0
    2.9168   -2.1619   -1.5567 C   0  0  0  0  0  0  0  0  0  0  0  0
    3.5159   -0.5278    0.0196 N   0  0  0  0  0  0  0  0  0  0  0  0
    3.4452    0.8045    0.4288 C   0  0  0  0  0  0  0  0  0  0  0  0
    4.3691    1.7618   -0.2529 C   0  0  0  0  0  0  0  0  0  0  0  0
    5.8038    1.3293   -0.0629 C   0  0  0  0  0  0  0  0  0  0  0  0
    6.5123    2.4582    0.6646 C   0  0  0  0  0  0  0  0  0  0  0  0
    5.7639    0.0954    0.8179 C   0  0  0  0  0  0  0  0  0  0  0  0
    4.8937   -0.9919    0.2453 C   0  0  0  0  0  0  0  0  0  0  0  0
   -3.1184   -1.2120    0.5242 C   0  0  0  0  0  0  0  0  0  0  0  0
   -4.1554   -1.4611   -0.2667 C   0  0  0  0  0  0  0  0  0  0  0  0
   -4.7472   -2.6963   -0.2963 C   0  0  0  0  0  0  0  0  0  0  0  0
   -4.2429   -3.6733    0.5095 C   0  0  0  0  0  0  0  0  0  0  0  0
   -3.1748   -3.4796    1.3485 C   0  0  0  0  0  0  0  0  0  0  0  0
   -2.6154   -2.1935    1.3324 C   0  0  0  0  0  0  0  0  0  0  0  0
  1  2  2  0
  2  3  1  0
  3  4  1  0
  4  5  1  0
  6  5  1  6
  6  7  1  0
  7  8  1  0
  8  9  2  0
  8 10  1  0
 10 11  1  0
 11 12  1  0
 12 13  1  1
 12 14  1  0
 14 15  1  0
 15 16  1  0
 16 17  1  0
 17 18  1  0
 17 19  1  0
 19 20  1  0
  6 21  1  0
 21 22  2  0
 22 23  1  0
 23 24  2  0
 24 25  1  0
 25 26  2  0
 20 14  1  0
 26 21  1  0
M  END
>  <zinc_id>  (1) 
ZINC001667676458

>  <smiles>  (1) 
C=CCCC[C@H](NC(=O)NC[C@H](C)N1CCC(C)CC1)c1ccccc1

$$$$
