
     RDKit          3D

 27 29  0  0  0  0  0  0  0  0999 V2000
   -3.1327   -2.1291   -1.8743 C   0  0  0  0  0  0  0  0  0  0  0  0
   -2.4601   -1.1334   -1.7746 C   0  0  0  0  0  0  0  0  0  0  0  0
   -1.6426    0.0626   -1.6562 C   0  0  0  0  0  0  0  0  0  0  0  0
   -1.2112    0.2775   -0.3346 N   0  0  0  0  0  0  0  0  0  0  0  0
   -0.0205   -0.2059    0.2693 C   0  0  0  0  0  0  0  0  0  0  0  0
    0.3012    0.0276    1.4619 O   0  0  0  0  0  0  0  0  0  0  0  0
    0.9173   -1.0122   -0.4609 N   0  0  0  0  0  0  0  0  0  0  0  0
    2.1272   -1.4947    0.1714 C   0  0  0  0  0  0  0  0  0  0  0  0
    2.8493   -0.0785    0.5839 C   0  0  2  0  0  0  0  0  0  0  0  0
    2.9317    0.4566   -0.9581 C   0  0  0  0  0  0  0  0  0  0  0  0
    4.2872   -0.6852    0.6071 N   0  0  0  0  0  0  0  0  0  0  0  0
    4.6188   -1.1668   -0.6910 C   0  0  0  0  0  0  0  0  0  0  0  0
    5.1805   -0.0247   -1.5089 C   0  0  0  0  0  0  0  0  0  0  0  0
    6.6486    0.0588   -1.0862 C   0  0  0  0  0  0  0  0  0  0  0  0
    7.2547   -1.3026   -1.3585 C   0  0  0  0  0  0  0  0  0  0  0  0
    6.5764    0.1878    0.4444 C   0  0  0  0  0  0  0  0  0  0  0  0
    5.1444    0.4538    0.8769 C   0  0  0  0  0  0  0  0  0  0  0  0
   -2.0721    1.1286    0.6327 C   0  0  2  0  0  0  0  0  0  0  0  0
   -2.3230   -0.0496    1.7434 C   0  0  0  0  0  0  0  0  0  0  0  0
   -3.5591    0.2687    2.4944 C   0  0  0  0  0  0  0  0  0  0  0  0
   -4.7890    0.0014    1.6962 C   0  0  0  0  0  0  0  0  0  0  0  0
   -4.5926    0.5704    0.3608 C   0  0  0  0  0  0  0  0  0  0  0  0
   -5.7839    0.5645   -0.4155 C   0  0  0  0  0  0  0  0  0  0  0  0
   -5.7633    1.0614   -1.6805 C   0  0  0  0  0  0  0  0  0  0  0  0
   -4.5864    1.5639   -2.1916 C   0  0  0  0  0  0  0  0  0  0  0  0
   -3.4422    1.5565   -1.4119 C   0  0  0  0  0  0  0  0  0  0  0  0
   -3.4587    1.0426   -0.1007 C   0  0  0  0  0  0  0  0  0  0  0  0
  1  2  3  0
  2  3  1  0
  3  4  1  0
  4  5  1  0
  5  6  2  0
  5  7  1  0
  7  8  1  0
  8  9  1  0
  9 10  1  6
  9 11  1  0
 11 12  1  0
 12 13  1  0
 13 14  1  0
 14 15  1  0
 14 16  1  0
 16 17  1  0
 18  4  1  6
 18 19  1  0
 19 20  1  0
 20 21  1  0
 21 22  1  0
 22 23  2  0
 23 24  1  0
 24 25  2  0
 25 26  1  0
 26 27  2  0
 17 11  1  0
 27 18  1  0
 27 22  1  0
M  END
>  <zinc_id>  (1) 
ZINC001667676386

>  <smiles>  (1) 
C#CCN(C(=O)NC[C@H](C)N1CCC(C)CC1)[C@@H]1CCCc2ccccc21

$$$$
