
     RDKit          3D

 23 25  0  0  0  0  0  0  0  0999 V2000
    7.3568   -1.6099    0.7271 C   0  0  0  0  0  0  0  0  0  0  0  0
    6.3118   -1.0378   -0.1609 C   0  0  0  0  0  0  0  0  0  0  0  0
    6.4840   -0.3153   -1.2567 N   0  0  0  0  0  0  0  0  0  0  0  0
    5.4847    0.0996   -1.9042 N   0  0  0  0  0  0  0  0  0  0  0  0
    4.2491   -0.1641   -1.5235 C   0  0  0  0  0  0  0  0  0  0  0  0
    2.9215    0.1815   -2.1051 C   0  0  0  0  0  0  0  0  0  0  0  0
    2.4085    1.3055   -1.4784 N   0  0  0  0  0  0  0  0  0  0  0  0
    2.2104    1.0130   -0.0815 C   0  0  0  0  0  0  0  0  0  0  0  0
    0.9054    1.6331   -0.0843 C   0  0  0  0  0  0  0  0  0  0  0  0
   -0.2976    0.5033   -0.2388 C   0  0  1  0  0  0  0  0  0  0  0  0
    0.0875   -0.2782    1.1371 C   0  0  0  0  0  0  0  0  0  0  0  0
   -1.3498    1.4301    0.4148 N   0  0  0  0  0  0  0  0  0  0  0  0
   -2.6934    1.0696    0.2308 C   0  0  0  0  0  0  0  0  0  0  0  0
   -2.8743    0.0221   -0.4394 O   0  0  0  0  0  0  0  0  0  0  0  0
   -3.8250    1.8799    0.7951 C   0  0  0  0  0  0  0  0  0  0  0  0
   -5.1111    1.3056    0.4660 C   0  0  0  0  0  0  0  0  0  0  0  0
   -5.3652   -0.0035    0.9821 N   0  0  0  0  0  0  0  0  0  0  0  0
   -5.1160   -1.1808    0.4217 C   0  0  0  0  0  0  0  0  0  0  0  0
   -5.5153   -2.2265    1.2242 C   0  0  0  0  0  0  0  0  0  0  0  0
   -6.0421   -1.6059    2.3471 C   0  0  0  0  0  0  0  0  0  0  0  0
   -5.9504   -0.2390    2.1971 C   0  0  0  0  0  0  0  0  0  0  0  0
    1.1372    1.8268   -1.5609 C   0  0  0  0  0  0  0  0  0  0  0  0
    4.5832   -1.0886   -0.1094 S   0  0  0  0  0  0  0  0  0  0  0  0
  1  2  1  0
  2  3  2  0
  3  4  1  0
  4  5  2  0
  5  6  1  0
  6  7  1  0
  7  8  1  0
  8  9  1  0
  9 10  1  0
 10 11  1  1
 10 12  1  0
 12 13  1  0
 13 14  2  0
 13 15  1  0
 15 16  1  0
 16 17  1  0
 17 18  1  0
 18 19  2  0
 19 20  1  0
 20 21  2  0
  9 22  1  0
  5 23  1  0
 23  2  1  0
 22  7  1  0
 21 17  1  0
M  END
>  <zinc_id>  (1) 
ZINC001485529962

>  <smiles>  (1) 
Cc1nnc(CN2CC([C@@H](C)NC(=O)CCn3cccc3)C2)s1

$$$$
