
     RDKit          3D

 33 36  0  0  0  0  0  0  0  0999 V2000
    3.8928    2.9896   -0.5692 C   0  0  0  0  0  0  0  0  0  0  0  0
    2.7440    2.1666   -1.0575 C   0  0  0  0  0  0  0  0  0  0  0  0
    1.4714    2.6562   -0.4291 C   0  0  0  0  0  0  0  0  0  0  0  0
    2.5714    2.3049   -2.5722 C   0  0  0  0  0  0  0  0  0  0  0  0
    2.8682    0.8016   -0.8142 O   0  0  0  0  0  0  0  0  0  0  0  0
    2.9877    0.2896    0.4599 C   0  0  0  0  0  0  0  0  0  0  0  0
    2.9767    1.1388    1.3810 O   0  0  0  0  0  0  0  0  0  0  0  0
    3.1074   -1.0256    0.7019 N   0  0  0  0  0  0  0  0  0  0  0  0
    3.2331   -1.5732    2.1054 C   0  0  0  0  0  0  0  0  0  0  0  0
    3.1080   -3.2129    2.0105 C   0  0  0  0  0  0  0  0  0  0  0  0
    2.2778   -3.3805    0.5555 C   0  0  2  0  0  0  0  0  0  0  0  0
    3.1731   -2.1789   -0.3230 C   0  0  2  0  0  0  0  0  0  0  0  0
    4.5203   -2.6273    0.3717 C   0  0  0  0  0  0  0  0  0  0  0  0
    3.8226   -2.4985    1.2962 C   0  0  0  0  0  0  0  0  0  0  0  0
    2.1576   -1.9910    1.4627 C   0  0  0  0  0  0  0  0  0  0  0  0
    1.3053   -2.4203    1.0932 N   0  0  0  0  0  0  0  0  0  0  0  0
   -0.0306   -2.3091    1.0330 C   0  0  0  0  0  0  0  0  0  0  0  0
   -0.7005   -3.1923    0.3815 O   0  0  0  0  0  0  0  0  0  0  0  0
   -0.7599   -1.3157    1.6171 N   0  0  0  0  0  0  0  0  0  0  0  0
   -2.0193   -0.8813    1.7701 C   0  0  0  0  0  0  0  0  0  0  0  0
   -2.8541   -0.4430    0.4986 C   0  0  2  0  0  0  0  0  0  0  0  0
   -2.8235   -1.8470   -0.2446 C   0  0  0  0  0  0  0  0  0  0  0  0
   -2.8292   -1.7326   -1.6894 C   0  0  0  0  0  0  0  0  0  0  0  0
   -1.9181   -0.7686   -2.3351 C   0  0  0  0  0  0  0  0  0  0  0  0
   -2.1053    0.5022   -1.6538 N   0  0  0  0  0  0  0  0  0  0  0  0
   -3.5265    0.7829   -1.6858 C   0  0  0  0  0  0  0  0  0  0  0  0
   -3.8600    2.0627   -1.0416 C   0  0  0  0  0  0  0  0  0  0  0  0
   -4.1902    2.0953    0.2895 C   0  0  0  0  0  0  0  0  0  0  0  0
   -4.4996    3.2899    0.8828 C   0  0  0  0  0  0  0  0  0  0  0  0
   -4.4833    4.4598    0.1591 C   0  0  0  0  0  0  0  0  0  0  0  0
   -4.1484    4.4004   -1.1760 C   0  0  0  0  0  0  0  0  0  0  0  0
   -3.8369    3.2182   -1.7850 C   0  0  0  0  0  0  0  0  0  0  0  0
   -1.6320    0.2390   -0.3115 C   0  0  0  0  0  0  0  0  0  0  0  0
  1  2  1  0
  2  3  1  0
  2  4  1  0
  2  5  1  0
  5  6  1  0
  6  7  2  0
  6  8  1  0
  8  9  1  0
  9 10  1  0
 11 10  1  1
 11 12  1  0
 12 13  1  1
 13 14  1  0
 14 15  1  0
 15 16  1  0
 16 17  1  0
 17 18  2  0
 17 19  1  0
 19 20  1  0
 21 20  1  1
 21 22  1  0
 22 23  1  0
 23 24  1  0
 24 25  1  0
 25 26  1  0
 26 27  1  0
 27 28  2  0
 28 29  1  0
 29 30  2  0
 30 31  1  0
 31 32  2  0
 25 33  1  0
 12  8  1  0
 33 21  1  0
 16 11  1  0
 32 27  1  0
M  END
>  <zinc_id>  (1) 
ZINC001667676406

>  <smiles>  (1) 
CC(C)(C)OC(=O)N1CC[C@@H]2[C@@H]1CCCN2C(=O)NC[C@@H]1CCCN(Cc2ccccc2)C1

$$$$
