
     RDKit          3D

 21 22  0  0  0  0  0  0  0  0999 V2000
   -7.0994    0.3274    0.5951 C   0  0  0  0  0  0  0  0  0  0  0  0
   -5.6898    0.8707    0.3258 C   0  0  0  0  0  0  0  0  0  0  0  0
   -5.3242    0.3445   -1.0325 C   0  0  0  0  0  0  0  0  0  0  0  0
   -4.7610    0.4883    1.4272 C   0  0  0  0  0  0  0  0  0  0  0  0
   -4.5477   -0.9421    1.6803 C   0  0  0  0  0  0  0  0  0  0  0  0
   -3.8908   -1.7802    0.6659 C   0  0  0  0  0  0  0  0  0  0  0  0
   -2.5478   -1.5311    0.3341 N   0  0  0  0  0  0  0  0  0  0  0  0
   -2.2314   -0.3335   -0.3254 C   0  0  0  0  0  0  0  0  0  0  0  0
   -1.0758   -0.0489    0.6380 C   0  0  0  0  0  0  0  0  0  0  0  0
    0.2075   -0.6787   -0.1836 C   0  0  1  0  0  0  0  0  0  0  0  0
   -0.0117    0.3265   -1.4674 C   0  0  0  0  0  0  0  0  0  0  0  0
    1.2410    0.2666    0.5196 N   0  0  0  0  0  0  0  0  0  0  0  0
    2.4423    0.5406   -0.2367 C   0  0  0  0  0  0  0  0  0  0  0  0
    2.4797   -0.0274   -1.3624 O   0  0  0  0  0  0  0  0  0  0  0  0
    3.4817    1.4084    0.3154 C   0  0  0  0  0  0  0  0  0  0  0  0
    4.7047    1.5605   -0.4653 C   0  0  0  0  0  0  0  0  0  0  0  0
    5.5439    0.3699   -0.7298 C   0  0  0  0  0  0  0  0  0  0  0  0
    5.0224   -0.8304   -1.4775 C   0  0  0  0  0  0  0  0  0  0  0  0
    6.9965    0.6834   -1.1829 C   0  0  0  0  0  0  0  0  0  0  0  0
    6.7488    0.1584    0.1818 C   0  0  0  0  0  0  0  0  0  0  0  0
   -1.6892   -1.1728    1.4440 C   0  0  0  0  0  0  0  0  0  0  0  0
  1  2  1  0
  2  3  1  0
  2  4  1  0
  4  5  1  0
  5  6  1  0
  6  7  1  0
  7  8  1  0
  8  9  1  0
  9 10  1  0
 10 11  1  6
 10 12  1  0
 12 13  1  0
 13 14  2  0
 13 15  1  0
 15 16  1  0
 16 17  1  0
 17 18  1  0
 17 19  1  0
 19 20  1  0
  9 21  1  0
 21  7  1  0
 20 17  1  0
M  END
>  <zinc_id>  (1) 
ZINC001485529997

>  <smiles>  (1) 
CC(C)CCCN1CC([C@@H](C)NC(=O)CCC2(C)CC2)C1

$$$$
