
     RDKit          3D

 29 31  0  0  0  0  0  0  0  0999 V2000
   -0.8454    1.5787   -1.4814 C   0  0  0  0  0  0  0  0  0  0  0  0
   -2.6199    1.6266   -1.1459 S   0  0  0  0  0  0  0  0  0  0  0  0
   -3.2531    0.8998   -2.3296 O   0  0  0  0  0  0  0  0  0  0  0  0
   -3.0079    3.0894   -1.3472 O   0  0  0  0  0  0  0  0  0  0  0  0
   -2.9032    1.0467    0.2259 N   0  0  0  0  0  0  0  0  0  0  0  0
   -2.9341    0.8355    1.4779 C   0  0  0  0  0  0  0  0  0  0  0  0
   -3.8262   -0.4727    1.9363 C   0  0  1  0  0  0  0  0  0  0  0  0
   -5.1908    0.1354    1.2861 C   0  0  0  0  0  0  0  0  0  0  0  0
   -6.1101   -0.9177    1.4393 O   0  0  0  0  0  0  0  0  0  0  0  0
   -5.7380   -1.9825    0.6112 C   0  0  0  0  0  0  0  0  0  0  0  0
   -4.5170   -1.5487   -0.1922 C   0  0  0  0  0  0  0  0  0  0  0  0
   -3.4542   -1.3161    0.7201 N   0  0  0  0  0  0  0  0  0  0  0  0
   -2.1509   -1.7629    0.6251 C   0  0  0  0  0  0  0  0  0  0  0  0
   -1.7110   -2.4685   -0.3296 O   0  0  0  0  0  0  0  0  0  0  0  0
   -1.2205   -1.4271    1.6463 N   0  0  0  0  0  0  0  0  0  0  0  0
    0.1413   -1.8728    1.5830 C   0  0  0  0  0  0  0  0  0  0  0  0
    0.7814   -1.2644    0.2197 C   0  0  2  0  0  0  0  0  0  0  0  0
    2.2489   -1.9377    0.4653 C   0  0  0  0  0  0  0  0  0  0  0  0
    2.7398   -1.5201    1.7834 C   0  0  0  0  0  0  0  0  0  0  0  0
    3.2868   -0.1035    1.6794 C   0  0  0  0  0  0  0  0  0  0  0  0
    2.4237    0.5509    0.6812 N   0  0  0  0  0  0  0  0  0  0  0  0
    2.9605    0.3099   -0.6281 C   0  0  0  0  0  0  0  0  0  0  0  0
    4.3415    0.8943   -0.6451 C   0  0  0  0  0  0  0  0  0  0  0  0
    4.5740    2.1963   -1.0214 C   0  0  0  0  0  0  0  0  0  0  0  0
    5.8754    2.6973   -1.0220 C   0  0  0  0  0  0  0  0  0  0  0  0
    6.9079    1.8911   -0.6491 C   0  0  0  0  0  0  0  0  0  0  0  0
    6.6834    0.5829   -0.2699 C   0  0  0  0  0  0  0  0  0  0  0  0
    5.4020    0.0799   -0.2663 C   0  0  0  0  0  0  0  0  0  0  0  0
    1.1158    0.1799    0.9157 C   0  0  0  0  0  0  0  0  0  0  0  0
  1  2  1  0
  2  3  2  0
  2  4  2  0
  2  5  1  0
  5  6  1  0
  7  6  1  6
  7  8  1  0
  8  9  1  0
  9 10  1  0
 10 11  1  0
 11 12  1  0
 12 13  1  0
 13 14  2  0
 13 15  1  0
 15 16  1  0
 17 16  1  1
 17 18  1  0
 18 19  1  0
 19 20  1  0
 20 21  1  0
 21 22  1  0
 22 23  1  0
 23 24  2  0
 24 25  1  0
 25 26  2  0
 26 27  1  0
 27 28  2  0
 21 29  1  0
 12  7  1  0
 29 17  1  0
 28 23  1  0
M  END
>  <zinc_id>  (1) 
ZINC001667676415

>  <smiles>  (1) 
CS(=O)(=O)NC[C@H]1COCCN1C(=O)NC[C@@H]1CCCN(Cc2ccccc2)C1

$$$$
