
     RDKit          3D

 25 26  0  0  0  0  0  0  0  0999 V2000
    7.4500   -0.4040   -0.3091 C   0  0  0  0  0  0  0  0  0  0  0  0
    7.1645   -0.5076    0.9863 C   0  0  0  0  0  0  0  0  0  0  0  0
    6.7539    0.6937    1.7009 C   0  0  0  0  0  0  0  0  0  0  0  0
    5.4211    0.6077    2.2764 N   0  0  0  0  0  0  0  0  0  0  0  0
    4.2602    0.3817    1.4729 C   0  0  0  0  0  0  0  0  0  0  0  0
    4.4017    0.2482    0.2584 O   0  0  0  0  0  0  0  0  0  0  0  0
    2.9132    0.3089    2.0589 C   0  0  0  0  0  0  0  0  0  0  0  0
    1.8537    0.1226    1.2383 N   0  0  0  0  0  0  0  0  0  0  0  0
    1.4547   -0.9938    0.4889 C   0  0  0  0  0  0  0  0  0  0  0  0
    1.3942   -0.3498   -0.6841 C   0  0  0  0  0  0  0  0  0  0  0  0
    0.7306   -0.1902   -1.9850 C   0  0  1  0  0  0  0  0  0  0  0  0
    0.9357   -1.6873   -2.5972 C   0  0  0  0  0  0  0  0  0  0  0  0
   -0.7426   -0.2176   -1.9123 N   0  0  0  0  0  0  0  0  0  0  0  0
   -1.5141    0.0231   -0.8068 C   0  0  0  0  0  0  0  0  0  0  0  0
   -0.9470    0.2956    0.2935 O   0  0  0  0  0  0  0  0  0  0  0  0
   -3.0024   -0.0075   -0.7964 C   0  0  0  0  0  0  0  0  0  0  0  0
   -3.7867    0.0914    0.3310 C   0  0  0  0  0  0  0  0  0  0  0  0
   -5.1345    0.0326   -0.0488 C   0  0  0  0  0  0  0  0  0  0  0  0
   -6.2792    0.1033    0.8938 C   0  0  0  0  0  0  0  0  0  0  0  0
   -6.2501   -1.1928    1.6808 C   0  0  0  0  0  0  0  0  0  0  0  0
   -6.1927    1.2373    1.8726 C   0  0  0  0  0  0  0  0  0  0  0  0
   -5.1415   -0.0951   -1.3721 O   0  0  0  0  0  0  0  0  0  0  0  0
   -3.8961   -0.1223   -1.8299 C   0  0  0  0  0  0  0  0  0  0  0  0
   -3.5186   -0.2560   -3.2535 C   0  0  0  0  0  0  0  0  0  0  0  0
    1.6720    0.9443    0.0423 C   0  0  0  0  0  0  0  0  0  0  0  0
  1  2  2  0
  2  3  1  0
  3  4  1  0
  4  5  1  0
  5  6  2  0
  5  7  1  0
  7  8  1  0
  8  9  1  0
  9 10  1  0
 10 11  1  0
 11 12  1  6
 11 13  1  0
 13 14  1  0
 14 15  2  0
 14 16  1  0
 16 17  1  0
 17 18  2  0
 18 19  1  0
 19 20  1  0
 19 21  1  0
 18 22  1  0
 22 23  1  0
 23 24  1  0
 10 25  1  0
 25  8  1  0
 23 16  2  0
M  END
>  <zinc_id>  (1) 
ZINC001485529976

>  <smiles>  (1) 
C=CCNC(=O)CN1CC([C@@H](C)NC(=O)c2cc(C(C)C)oc2C)C1

$$$$
