
     RDKit          3D

 23 25  0  0  0  0  0  0  0  0999 V2000
    0.6392    1.1616   -0.0307 C   0  0  0  0  0  0  0  0  0  0  0  0
    1.1422   -0.2317   -0.7758 C   0  0  2  0  0  0  0  0  0  0  0  0
   -0.1520   -1.0233   -0.4423 N   0  0  0  0  0  0  0  0  0  0  0  0
   -1.4011   -0.4448   -0.7296 C   0  0  0  0  0  0  0  0  0  0  0  0
   -1.3751    0.6962   -1.2469 O   0  0  0  0  0  0  0  0  0  0  0  0
   -2.6853   -1.0838   -0.4657 C   0  0  0  0  0  0  0  0  0  0  0  0
   -3.8182    0.0478   -0.7930 C   0  0  1  0  0  0  0  0  0  0  0  0
   -5.0364   -0.9548   -0.4104 C   0  0  0  0  0  0  0  0  0  0  0  0
   -6.3019   -0.1866   -0.2878 C   0  0  0  0  0  0  0  0  0  0  0  0
   -6.3444    0.2650    1.1602 C   0  0  0  0  0  0  0  0  0  0  0  0
   -5.0835    1.5187    1.2020 S   0  0  0  0  0  0  0  0  0  0  0  0
   -5.4928    2.6005    0.2481 O   0  0  0  0  0  0  0  0  0  0  0  0
   -4.9577    2.1418    2.5551 O   0  0  0  0  0  0  0  0  0  0  0  0
   -3.6377    0.7853    0.6106 C   0  0  0  0  0  0  0  0  0  0  0  0
    1.9601   -0.7132    0.5747 C   0  0  0  0  0  0  0  0  0  0  0  0
    2.6046   -2.0319    0.2833 C   0  0  0  0  0  0  0  0  0  0  0  0
    3.8692   -1.3661    0.4795 N   0  0  0  0  0  0  0  0  0  0  0  0
    4.7039   -1.3447   -0.7105 C   0  0  0  0  0  0  0  0  0  0  0  0
    5.9326   -0.5808   -0.2368 C   0  0  0  0  0  0  0  0  0  0  0  0
    6.9091   -0.4873   -1.3828 C   0  0  0  0  0  0  0  0  0  0  0  0
    8.1618    0.2678   -1.0236 C   0  0  0  0  0  0  0  0  0  0  0  0
    7.0677    0.9996   -1.7690 C   0  0  0  0  0  0  0  0  0  0  0  0
    3.2956   -0.0355    0.5738 C   0  0  0  0  0  0  0  0  0  0  0  0
  2  1  1  1
  2  3  1  0
  3  4  1  0
  4  5  2  0
  4  6  1  0
  7  6  1  1
  7  8  1  0
  8  9  1  0
  9 10  1  0
 10 11  1  0
 11 12  2  0
 11 13  2  0
 11 14  1  0
  2 15  1  0
 15 16  1  0
 16 17  1  0
 17 18  1  0
 18 19  1  0
 19 20  1  0
 20 21  1  0
 21 22  1  0
 17 23  1  0
 14  7  1  0
 23 15  1  0
 22 20  1  0
M  END
>  <zinc_id>  (1) 
ZINC001485529978

>  <smiles>  (1) 
C[C@H](NC(=O)C[C@H]1CCCS(=O)(=O)C1)C1CN(CCC2CC2)C1

$$$$
