
     RDKit          3D

 32 35  0  0  0  0  0  0  0  0999 V2000
    7.3054    3.9200    0.1022 C   0  0  0  0  0  0  0  0  0  0  0  0
    7.1889    2.4620    0.4153 C   0  0  0  0  0  0  0  0  0  0  0  0
    8.1531    1.8431    1.1848 C   0  0  0  0  0  0  0  0  0  0  0  0
    7.9893    0.4947    1.4387 C   0  0  0  0  0  0  0  0  0  0  0  0
    6.9342   -0.1878    0.9567 N   0  0  0  0  0  0  0  0  0  0  0  0
    5.9811    0.3750    0.2091 C   0  0  0  0  0  0  0  0  0  0  0  0
    4.8564   -0.4137   -0.2898 C   0  0  0  0  0  0  0  0  0  0  0  0
    4.6143   -1.7208   -0.0969 N   0  0  0  0  0  0  0  0  0  0  0  0
    3.4959   -2.0446   -0.7149 O   0  0  0  0  0  0  0  0  0  0  0  0
    2.9870   -0.9984   -1.3109 C   0  0  0  0  0  0  0  0  0  0  0  0
    1.7503   -0.8761   -2.1208 C   0  0  0  0  0  0  0  0  0  0  0  0
    1.0289   -2.2031   -2.2232 C   0  0  0  0  0  0  0  0  0  0  0  0
    0.6834   -2.6203   -0.8090 C   0  0  0  0  0  0  0  0  0  0  0  0
    0.0011   -1.4399   -0.1547 C   0  0  0  0  0  0  0  0  0  0  0  0
   -1.0846   -0.9891   -0.9667 N   0  0  0  0  0  0  0  0  0  0  0  0
   -2.3643   -0.7444   -0.3911 C   0  0  0  0  0  0  0  0  0  0  0  0
   -3.3308   -0.3417   -1.1252 O   0  0  0  0  0  0  0  0  0  0  0  0
   -2.6341   -0.9235    0.9685 N   0  0  0  0  0  0  0  0  0  0  0  0
   -3.7863   -0.7381    1.6991 C   0  0  0  0  0  0  0  0  0  0  0  0
   -4.2939    0.8113    1.6554 C   0  0  2  0  0  0  0  0  0  0  0  0
   -5.5926    0.4887    2.6747 C   0  0  0  0  0  0  0  0  0  0  0  0
   -5.1550    0.6288    0.3483 N   0  0  0  0  0  0  0  0  0  0  0  0
   -5.8100    1.9242    0.3065 C   0  0  0  0  0  0  0  0  0  0  0  0
   -6.9432    1.8897    1.3095 C   0  0  0  0  0  0  0  0  0  0  0  0
   -8.0902    1.0086    0.8589 C   0  0  0  0  0  0  0  0  0  0  0  0
   -9.0313    1.8248    0.0183 C   0  0  0  0  0  0  0  0  0  0  0  0
   -7.4877   -0.0543   -0.0350 C   0  0  0  0  0  0  0  0  0  0  0  0
   -6.1223   -0.3664    0.5202 C   0  0  0  0  0  0  0  0  0  0  0  0
   -0.9305   -0.7698   -2.3666 C   0  0  0  0  0  0  0  0  0  0  0  0
   -0.2565   -1.9741   -2.9919 C   0  0  0  0  0  0  0  0  0  0  0  0
    3.8258    0.0154   -1.0511 N   0  0  0  0  0  0  0  0  0  0  0  0
    6.1181    1.7197   -0.0608 C   0  0  0  0  0  0  0  0  0  0  0  0
  1  2  1  0
  2  3  2  0
  3  4  1  0
  4  5  2  0
  5  6  1  0
  6  7  1  0
  7  8  2  0
  8  9  1  0
  9 10  1  0
 10 11  1  0
 11 12  1  0
 12 13  1  0
 13 14  1  0
 14 15  1  0
 15 16  1  0
 16 17  2  0
 16 18  1  0
 18 19  1  0
 19 20  1  0
 20 21  1  1
 20 22  1  0
 22 23  1  0
 23 24  1  0
 24 25  1  0
 25 26  1  0
 25 27  1  0
 27 28  1  0
 15 29  1  0
 29 30  1  0
 10 31  2  0
  6 32  2  0
 32  2  1  0
 31  7  1  0
 30 12  1  0
 28 22  1  0
M  END
>  <zinc_id>  (1) 
ZINC001667676425

>  <smiles>  (1) 
Cc1ccnc(-c2noc(CC3CCN(C(=O)NC[C@H](C)N4CCC(C)CC4)CC3)n2)c1

$$$$
