
     RDKit          3D

 27 29  0  0  0  0  0  0  0  0999 V2000
   -1.1351    3.3632    1.3090 C   0  0  0  0  0  0  0  0  0  0  0  0
   -1.3072    2.5512    0.4360 C   0  0  0  0  0  0  0  0  0  0  0  0
   -1.5377    1.5698   -0.5966 C   0  0  0  0  0  0  0  0  0  0  0  0
   -1.2223    0.2325   -0.2235 N   0  0  0  0  0  0  0  0  0  0  0  0
    0.0748   -0.2577   -0.4516 C   0  0  0  0  0  0  0  0  0  0  0  0
    0.9969    0.4503   -0.9818 O   0  0  0  0  0  0  0  0  0  0  0  0
    0.5101   -1.5830   -0.1223 N   0  0  0  0  0  0  0  0  0  0  0  0
    1.8902   -2.0203   -0.3913 C   0  0  0  0  0  0  0  0  0  0  0  0
    2.7779   -0.9364    0.5302 C   0  0  1  0  0  0  0  0  0  0  0  0
    2.0299   -1.4411    1.9263 C   0  0  0  0  0  0  0  0  0  0  0  0
    3.9791   -1.9608    0.7104 N   0  0  0  0  0  0  0  0  0  0  0  0
    4.4536   -2.1620   -0.6682 C   0  0  0  0  0  0  0  0  0  0  0  0
    5.6836   -1.3813   -0.9778 C   0  0  0  0  0  0  0  0  0  0  0  0
    5.4474    0.1025   -0.8308 C   0  0  0  0  0  0  0  0  0  0  0  0
    6.7216    0.8924   -1.0382 C   0  0  0  0  0  0  0  0  0  0  0  0
    4.9384    0.2804    0.6057 C   0  0  0  0  0  0  0  0  0  0  0  0
    4.9648   -1.0738    1.3284 C   0  0  0  0  0  0  0  0  0  0  0  0
   -2.2642   -0.6997    0.4366 C   0  0  2  0  0  0  0  0  0  0  0  0
   -2.6880   -1.6209   -0.8593 C   0  0  0  0  0  0  0  0  0  0  0  0
   -2.7511   -0.8404   -2.0786 C   0  0  0  0  0  0  0  0  0  0  0  0
   -4.0366   -0.0601   -2.1064 C   0  0  0  0  0  0  0  0  0  0  0  0
   -4.2311    0.4722   -0.7386 C   0  0  0  0  0  0  0  0  0  0  0  0
   -5.3220    1.3484   -0.6361 C   0  0  0  0  0  0  0  0  0  0  0  0
   -5.6587    1.9568    0.5681 C   0  0  0  0  0  0  0  0  0  0  0  0
   -4.9123    1.7022    1.6947 C   0  0  0  0  0  0  0  0  0  0  0  0
   -3.8495    0.8517    1.6090 C   0  0  0  0  0  0  0  0  0  0  0  0
   -3.5521    0.2643    0.3713 C   0  0  0  0  0  0  0  0  0  0  0  0
  1  2  3  0
  2  3  1  0
  3  4  1  0
  4  5  1  0
  5  6  2  0
  5  7  1  0
  7  8  1  0
  8  9  1  0
  9 10  1  1
  9 11  1  0
 11 12  1  0
 12 13  1  0
 13 14  1  0
 14 15  1  0
 14 16  1  0
 16 17  1  0
 18  4  1  6
 18 19  1  0
 19 20  1  0
 20 21  1  0
 21 22  1  0
 22 23  2  0
 23 24  1  0
 24 25  2  0
 25 26  1  0
 26 27  2  0
 17 11  1  0
 27 18  1  0
 27 22  1  0
M  END
>  <zinc_id>  (1) 
ZINC001667676384

>  <smiles>  (1) 
C#CCN(C(=O)NC[C@@H](C)N1CCC(C)CC1)[C@@H]1CCCc2ccccc21

$$$$
