
     RDKit          3D

 24 25  0  0  0  0  0  0  0  0999 V2000
    6.8176   -0.1809    0.1456 C   0  0  0  0  0  0  0  0  0  0  0  0
    6.9424    0.9260   -0.6389 O   0  0  0  0  0  0  0  0  0  0  0  0
    5.8502    1.3224   -1.3429 C   0  0  0  0  0  0  0  0  0  0  0  0
    5.4366    0.0670   -2.3296 C   0  0  2  0  0  0  0  0  0  0  0  0
    4.1756    0.8595   -2.9735 C   0  0  0  0  0  0  0  0  0  0  0  0
    4.6308   -0.7291   -1.1850 C   0  0  0  0  0  0  0  0  0  0  0  0
    3.5245    0.0540   -0.6645 C   0  0  0  0  0  0  0  0  0  0  0  0
    3.2018    1.2233   -0.9951 O   0  0  0  0  0  0  0  0  0  0  0  0
    2.7227   -0.5795    0.3268 N   0  0  0  0  0  0  0  0  0  0  0  0
    1.5314    0.3017    0.8484 C   0  0  2  0  0  0  0  0  0  0  0  0
    1.1276   -0.8061    1.9868 C   0  0  0  0  0  0  0  0  0  0  0  0
    0.5549   -0.1613   -0.3638 C   0  0  0  0  0  0  0  0  0  0  0  0
   -0.8057    0.4723   -0.2704 C   0  0  0  0  0  0  0  0  0  0  0  0
   -1.1892   -0.5247    0.5205 N   0  0  0  0  0  0  0  0  0  0  0  0
   -2.1839   -1.3937    0.7154 C   0  0  0  0  0  0  0  0  0  0  0  0
   -3.4618   -0.7792    0.9619 C   0  0  0  0  0  0  0  0  0  0  0  0
   -3.7253   -0.4004    2.2409 C   0  0  0  0  0  0  0  0  0  0  0  0
   -4.9422    0.1844    2.5215 C   0  0  0  0  0  0  0  0  0  0  0  0
   -5.8301    0.3660    1.5400 N   0  0  0  0  0  0  0  0  0  0  0  0
   -5.5602   -0.0156    0.2587 C   0  0  0  0  0  0  0  0  0  0  0  0
   -6.5154    0.1978   -0.7121 O   0  0  0  0  0  0  0  0  0  0  0  0
   -7.7502    0.7951   -0.4005 C   0  0  0  0  0  0  0  0  0  0  0  0
   -4.3685   -0.5955   -0.0510 C   0  0  0  0  0  0  0  0  0  0  0  0
   -0.1834   -1.3812   -0.1393 C   0  0  0  0  0  0  0  0  0  0  0  0
  1  2  1  0
  2  3  1  0
  3  4  1  0
  4  5  1  6
  4  6  1  0
  6  7  1  0
  7  8  2  0
  7  9  1  0
  9 10  1  0
 10 11  1  1
 10 12  1  0
 12 13  1  0
 13 14  1  0
 14 15  1  0
 15 16  1  0
 16 17  2  0
 17 18  1  0
 18 19  2  0
 19 20  1  0
 20 21  1  0
 21 22  1  0
 20 23  2  0
 14 24  1  0
 24 12  1  0
 23 16  1  0
M  END
>  <zinc_id>  (1) 
ZINC001485529917

>  <smiles>  (1) 
COC[C@H](C)CC(=O)N[C@H](C)C1CN(Cc2ccnc(OC)c2)C1

$$$$
