
     RDKit          3D

 25 27  0  0  0  0  0  0  0  0999 V2000
    5.7818   -0.9620    1.5567 C   0  0  0  0  0  0  0  0  0  0  0  0
    5.5934    0.2809    0.7098 C   0  0  0  0  0  0  0  0  0  0  0  0
    4.9958   -0.0488   -0.5694 N   0  0  0  0  0  0  0  0  0  0  0  0
    3.5839   -0.0434   -0.7014 C   0  0  0  0  0  0  0  0  0  0  0  0
    3.0559   -0.3243   -1.8065 O   0  0  0  0  0  0  0  0  0  0  0  0
    2.7310    0.2858    0.4557 C   0  0  0  0  0  0  0  0  0  0  0  0
    1.3375    0.2523    0.1986 N   0  0  0  0  0  0  0  0  0  0  0  0
    0.7700    1.2618   -0.6722 C   0  0  0  0  0  0  0  0  0  0  0  0
   -0.5226    1.0371    0.1457 C   0  0  0  0  0  0  0  0  0  0  0  0
   -0.8791   -0.5384   -0.3478 C   0  0  2  0  0  0  0  0  0  0  0  0
   -1.0251   -0.0769   -1.9316 C   0  0  0  0  0  0  0  0  0  0  0  0
   -2.3772   -0.4307    0.0812 N   0  0  0  0  0  0  0  0  0  0  0  0
   -3.2608    0.4063   -0.5320 C   0  0  0  0  0  0  0  0  0  0  0  0
   -2.8115    1.0917   -1.4666 O   0  0  0  0  0  0  0  0  0  0  0  0
   -4.6801    0.5183   -0.1337 C   0  0  0  0  0  0  0  0  0  0  0  0
   -4.9397   -0.1921    1.1476 C   0  0  0  0  0  0  0  0  0  0  0  0
   -5.0922    0.3555    2.3586 N   0  0  0  0  0  0  0  0  0  0  0  0
   -5.3047   -0.6086    3.2254 O   0  0  0  0  0  0  0  0  0  0  0  0
   -5.2914   -1.7753    2.6040 N   0  0  0  0  0  0  0  0  0  0  0  0
   -5.0635   -1.5557    1.2824 C   0  0  0  0  0  0  0  0  0  0  0  0
   -4.9702   -2.6157    0.2443 C   0  0  0  0  0  0  0  0  0  0  0  0
    0.5065    0.7700    1.2550 C   0  0  0  0  0  0  0  0  0  0  0  0
    5.8482   -0.3924   -1.6703 C   0  0  0  0  0  0  0  0  0  0  0  0
    6.5245    0.7859   -2.3500 C   0  0  0  0  0  0  0  0  0  0  0  0
    5.4898   -0.0554   -3.0836 C   0  0  0  0  0  0  0  0  0  0  0  0
  1  2  1  0
  2  3  1  0
  3  4  1  0
  4  5  2  0
  4  6  1  0
  6  7  1  0
  7  8  1  0
  8  9  1  0
  9 10  1  0
 10 11  1  6
 10 12  1  0
 12 13  1  0
 13 14  2  0
 13 15  1  0
 15 16  1  0
 16 17  2  0
 17 18  1  0
 18 19  1  0
 19 20  2  0
 20 21  1  0
  9 22  1  0
  3 23  1  0
 23 24  1  0
 24 25  1  0
 22  7  1  0
 25 23  1  0
 20 16  1  0
M  END
>  <zinc_id>  (1) 
ZINC001485529967

>  <smiles>  (1) 
CCN(C(=O)CN1CC([C@H](C)NC(=O)Cc2nonc2C)C1)C1CC1

$$$$
