
     RDKit          3D

 30 33  0  0  0  0  0  0  0  0999 V2000
    3.3489   -2.0305   -0.0663 C   0  0  0  0  0  0  0  0  0  0  0  0
    3.7708   -0.5509    0.0990 C   0  0  2  0  0  0  0  0  0  0  0  0
    5.2167   -0.4118   -0.0806 C   0  0  0  0  0  0  0  0  0  0  0  0
    5.8431    0.8020   -0.2091 C   0  0  0  0  0  0  0  0  0  0  0  0
    7.2455    0.9476   -0.3681 C   0  0  0  0  0  0  0  0  0  0  0  0
    8.0119   -0.1870   -0.3813 C   0  0  0  0  0  0  0  0  0  0  0  0
    7.4526   -1.3670   -0.2627 C   0  0  0  0  0  0  0  0  0  0  0  0
    8.2236   -2.5119   -0.2692 F   0  0  0  0  0  0  0  0  0  0  0  0
    6.0501   -1.5208   -0.1142 C   0  0  0  0  0  0  0  0  0  0  0  0
    3.4562   -0.3159    1.6230 C   0  0  0  0  0  0  0  0  0  0  0  0
    1.9288   -0.5594    1.4761 C   0  0  0  0  0  0  0  0  0  0  0  0
    1.6604    0.3786    0.3664 N   0  0  0  0  0  0  0  0  0  0  0  0
    0.4563    1.1296    0.2513 C   0  0  0  0  0  0  0  0  0  0  0  0
    0.2905    1.9200   -0.6978 O   0  0  0  0  0  0  0  0  0  0  0  0
   -0.5950    1.0371    1.1683 N   0  0  0  0  0  0  0  0  0  0  0  0
   -1.8021    1.4944    1.4572 C   0  0  0  0  0  0  0  0  0  0  0  0
   -3.0052    1.3241    0.4544 C   0  0  1  0  0  0  0  0  0  0  0  0
   -2.3377    2.2329   -0.7348 C   0  0  0  0  0  0  0  0  0  0  0  0
   -3.5149    2.3186   -1.6933 C   0  0  0  0  0  0  0  0  0  0  0  0
   -3.9639    0.9596   -2.0485 C   0  0  0  0  0  0  0  0  0  0  0  0
   -3.4399   -0.1611   -1.4050 N   0  0  0  0  0  0  0  0  0  0  0  0
   -4.3509   -1.2852   -1.2953 C   0  0  0  0  0  0  0  0  0  0  0  0
   -5.5481   -0.9404   -0.5040 C   0  0  0  0  0  0  0  0  0  0  0  0
   -6.4801   -1.9225   -0.2388 C   0  0  0  0  0  0  0  0  0  0  0  0
   -7.6196   -1.6466    0.4981 C   0  0  0  0  0  0  0  0  0  0  0  0
   -7.8600   -0.3856    0.9888 C   0  0  0  0  0  0  0  0  0  0  0  0
   -6.9216    0.6198    0.7214 C   0  0  0  0  0  0  0  0  0  0  0  0
   -5.8221    0.2922   -0.0080 C   0  0  0  0  0  0  0  0  0  0  0  0
   -2.5225   -0.0426   -0.3283 C   0  0  0  0  0  0  0  0  0  0  0  0
    2.8284    0.3826   -0.5236 C   0  0  0  0  0  0  0  0  0  0  0  0
  2  1  1  6
  2  3  1  0
  3  4  2  0
  4  5  1  0
  5  6  2  0
  6  7  1  0
  7  8  1  0
  7  9  2  0
  2 10  1  0
 10 11  1  0
 11 12  1  0
 12 13  1  0
 13 14  2  0
 13 15  1  0
 15 16  1  0
 17 16  1  1
 17 18  1  0
 18 19  1  0
 19 20  1  0
 20 21  1  0
 21 22  1  0
 22 23  1  0
 23 24  2  0
 24 25  1  0
 25 26  2  0
 26 27  1  0
 27 28  2  0
 21 29  1  0
 12 30  1  0
 30  2  1  0
  9  3  1  0
 29 17  1  0
 28 23  1  0
M  END
>  <zinc_id>  (1) 
ZINC001667676429

>  <smiles>  (1) 
C[C@]1(c2cccc(F)c2)CCN(C(=O)NC[C@H]2CCCN(Cc3ccccc3)C2)C1

$$$$
