
     RDKit          3D

 24 25  0  0  0  0  0  0  0  0999 V2000
    6.7675    1.5512    0.4738 C   0  0  0  0  0  0  0  0  0  0  0  0
    5.6187    0.8967   -0.3094 C   0  0  0  0  0  0  0  0  0  0  0  0
    5.9046   -0.4358   -0.4506 O   0  0  0  0  0  0  0  0  0  0  0  0
    4.9162   -1.1642   -1.1426 C   0  0  0  0  0  0  0  0  0  0  0  0
    3.6341   -0.9750   -0.2906 C   0  0  0  0  0  0  0  0  0  0  0  0
    3.3802    0.4782   -0.3269 N   0  0  0  0  0  0  0  0  0  0  0  0
    2.3534    0.9426    0.5502 C   0  0  0  0  0  0  0  0  0  0  0  0
    1.3154    0.4690   -0.4333 C   0  0  0  0  0  0  0  0  0  0  0  0
    1.2213   -1.1667   -0.2378 C   0  0  1  0  0  0  0  0  0  0  0  0
    0.8241   -1.0479    1.3802 C   0  0  0  0  0  0  0  0  0  0  0  0
   -0.3228   -1.2488   -0.6562 N   0  0  0  0  0  0  0  0  0  0  0  0
   -1.1932   -0.3031   -0.1417 C   0  0  0  0  0  0  0  0  0  0  0  0
   -0.7058    0.5611    0.6168 O   0  0  0  0  0  0  0  0  0  0  0  0
   -2.6112   -0.3115   -0.4610 C   0  0  0  0  0  0  0  0  0  0  0  0
   -3.0694   -1.0176   -1.5914 C   0  0  0  0  0  0  0  0  0  0  0  0
   -4.4245   -1.0507   -1.8942 C   0  0  0  0  0  0  0  0  0  0  0  0
   -5.2690   -0.4218   -1.1298 N   0  0  0  0  0  0  0  0  0  0  0  0
   -4.8766    0.2601   -0.0490 C   0  0  0  0  0  0  0  0  0  0  0  0
   -3.5341    0.3341    0.3135 C   0  0  0  0  0  0  0  0  0  0  0  0
   -3.1251    1.1003    1.4861 C   0  0  0  0  0  0  0  0  0  0  0  0
   -4.2956    1.6191    2.0758 F   0  0  0  0  0  0  0  0  0  0  0  0
   -2.4310    2.2852    1.1841 F   0  0  0  0  0  0  0  0  0  0  0  0
   -2.5254    0.3680    2.4856 F   0  0  0  0  0  0  0  0  0  0  0  0
    2.4483    0.7026   -1.4514 C   0  0  0  0  0  0  0  0  0  0  0  0
  1  2  1  0
  2  3  1  0
  3  4  1  0
  4  5  1  0
  5  6  1  0
  6  7  1  0
  7  8  1  0
  8  9  1  0
  9 10  1  1
  9 11  1  0
 11 12  1  0
 12 13  2  0
 12 14  1  0
 14 15  2  0
 15 16  1  0
 16 17  2  0
 17 18  1  0
 18 19  2  0
 19 20  1  0
 20 21  1  0
 20 22  1  0
 20 23  1  0
  8 24  1  0
 24  6  1  0
 19 14  1  0
M  END
>  <zinc_id>  (1) 
ZINC001485529999

>  <smiles>  (1) 
CCOCCN1CC([C@@H](C)NC(=O)c2ccncc2C(F)(F)F)C1

$$$$
