
     RDKit          3D

 25 27  0  0  0  0  0  0  0  0999 V2000
    6.5056   -1.6996    0.5834 C   0  0  0  0  0  0  0  0  0  0  0  0
    7.2398   -0.9007   -0.1810 C   0  0  0  0  0  0  0  0  0  0  0  0
    6.7023    0.3357   -0.7318 C   0  0  0  0  0  0  0  0  0  0  0  0
    5.3222    0.5425   -0.3143 N   0  0  0  0  0  0  0  0  0  0  0  0
    4.9005    1.2863    0.8182 C   0  0  0  0  0  0  0  0  0  0  0  0
    3.5061    0.9104    1.0885 C   0  0  0  0  0  0  0  0  0  0  0  0
    2.9386    0.5594   -0.3622 C   0  0  2  0  0  0  0  0  0  0  0  0
    2.4431   -0.8732    0.1044 N   0  0  0  0  0  0  0  0  0  0  0  0
    1.2715   -0.4693    0.9105 C   0  0  0  0  0  0  0  0  0  0  0  0
    0.5642   -0.4078   -0.4663 C   0  0  0  0  0  0  0  0  0  0  0  0
   -0.8336   -1.1674   -0.1579 C   0  0  2  0  0  0  0  0  0  0  0  0
   -1.3252   -1.0136   -1.7577 C   0  0  0  0  0  0  0  0  0  0  0  0
   -1.5941    0.2122    0.1635 N   0  0  0  0  0  0  0  0  0  0  0  0
   -2.9969    0.0222    0.1187 C   0  0  0  0  0  0  0  0  0  0  0  0
   -3.4758   -1.1071   -0.1307 O   0  0  0  0  0  0  0  0  0  0  0  0
   -3.8964    1.1571    0.3644 C   0  0  0  0  0  0  0  0  0  0  0  0
   -5.2785    0.6698    0.3300 C   0  0  0  0  0  0  0  0  0  0  0  0
   -6.1141    0.7507   -0.7199 N   0  0  0  0  0  0  0  0  0  0  0  0
   -7.2592    0.2010   -0.4571 O   0  0  0  0  0  0  0  0  0  0  0  0
   -7.1902   -0.2510    0.7680 N   0  0  0  0  0  0  0  0  0  0  0  0
   -6.0052    0.0054    1.3096 C   0  0  0  0  0  0  0  0  0  0  0  0
   -5.4462   -0.3037    2.6593 C   0  0  0  0  0  0  0  0  0  0  0  0
    1.5846   -1.4170   -0.9026 C   0  0  0  0  0  0  0  0  0  0  0  0
    4.2354    0.0442   -1.0283 C   0  0  0  0  0  0  0  0  0  0  0  0
    4.2014   -0.6761   -2.0088 O   0  0  0  0  0  0  0  0  0  0  0  0
  1  2  2  0
  2  3  1  0
  3  4  1  0
  4  5  1  0
  5  6  1  0
  6  7  1  0
  7  8  1  1
  8  9  1  0
  9 10  1  0
 10 11  1  0
 11 12  1  6
 11 13  1  0
 13 14  1  0
 14 15  2  0
 14 16  1  0
 16 17  1  0
 17 18  2  0
 18 19  1  0
 19 20  1  0
 20 21  2  0
 21 22  1  0
 10 23  1  0
  7 24  1  0
 24 25  2  0
 24  4  1  0
 23  8  1  0
 21 17  1  0
M  END
>  <zinc_id>  (1) 
ZINC001485529930

>  <smiles>  (1) 
C=CCN1CC[C@H](N2CC([C@H](C)NC(=O)Cc3nonc3C)C2)C1=O

$$$$
