
     RDKit          3D

 22 22  0  0  0  0  0  0  0  0999 V2000
    7.1414    0.4992    1.5467 C   0  0  0  0  0  0  0  0  0  0  0  0
    7.3447   -0.4121    0.2925 C   0  0  0  0  0  0  0  0  0  0  0  0
    6.0743   -1.0993    0.0717 C   0  0  0  0  0  0  0  0  0  0  0  0
    4.8902   -0.2284   -0.1467 C   0  0  0  0  0  0  0  0  0  0  0  0
    4.7607    0.7787    1.1121 C   0  0  0  0  0  0  0  0  0  0  0  0
    3.1952    1.2502    0.8540 C   0  0  0  0  0  0  0  0  0  0  0  0
    2.6788   -0.1346    0.6920 C   0  0  0  0  0  0  0  0  0  0  0  0
    1.4550   -0.5774    0.5050 N   0  0  0  0  0  0  0  0  0  0  0  0
    0.4738    0.0241   -0.4584 C   0  0  0  0  0  0  0  0  0  0  0  0
    0.9245    1.0811   -1.0088 O   0  0  0  0  0  0  0  0  0  0  0  0
   -0.7003   -0.5165   -0.6729 N   0  0  0  0  0  0  0  0  0  0  0  0
   -1.9578   -0.5100   -1.1988 C   0  0  0  0  0  0  0  0  0  0  0  0
   -2.5686    0.4691   -0.1247 C   0  0  0  0  0  0  0  0  0  0  0  0
   -1.9864    1.6245    0.2198 C   0  0  0  0  0  0  0  0  0  0  0  0
   -2.6484    2.3479    1.2574 C   0  0  0  0  0  0  0  0  0  0  0  0
   -3.8002    1.7961    1.8270 C   0  0  0  0  0  0  0  0  0  0  0  0
   -4.3447    0.5736    1.4131 C   0  0  0  0  0  0  0  0  0  0  0  0
   -3.7256   -0.1071    0.4173 C   0  0  0  0  0  0  0  0  0  0  0  0
   -4.1277   -1.4592   -0.1015 C   0  0  0  0  0  0  0  0  0  0  0  0
   -5.0370   -2.0735    0.6925 F   0  0  0  0  0  0  0  0  0  0  0  0
   -4.9354   -1.1123   -1.2946 F   0  0  0  0  0  0  0  0  0  0  0  0
   -3.1064   -2.2140   -0.5467 F   0  0  0  0  0  0  0  0  0  0  0  0
  1  2  1  0
  2  3  1  0
  3  4  1  0
  4  5  1  0
  5  6  1  0
  6  7  1  0
  7  8  1  0
  8  9  1  0
  9 10  2  0
  9 11  1  0
 11 12  1  0
 12 13  1  0
 13 14  2  0
 14 15  1  0
 15 16  2  0
 16 17  1  0
 17 18  2  0
 18 19  1  0
 19 20  1  0
 19 21  1  0
 19 22  1  0
 18 13  1  0
M  END
>  <zinc_id>  (1) 
ZINC001667676413

>  <smiles>  (1) 
CCCCCCCNC(=O)NCc1ccccc1C(F)(F)F

$$$$
