
     RDKit          3D

 29 31  0  0  0  0  0  0  0  0999 V2000
   -5.7939    0.6961    2.5778 C   0  0  0  0  0  0  0  0  0  0  0  0
   -5.4907    1.9022    1.3112 S   0  0  0  0  0  0  0  0  0  0  0  0
   -6.7397    2.6854    1.0992 O   0  0  0  0  0  0  0  0  0  0  0  0
   -4.3470    2.7781    1.7400 O   0  0  0  0  0  0  0  0  0  0  0  0
   -5.0671    1.1118   -0.1500 N   0  0  0  0  0  0  0  0  0  0  0  0
   -3.8300    0.3373    0.0475 C   0  0  0  0  0  0  0  0  0  0  0  0
   -3.6950   -0.2833   -1.4910 C   0  0  2  0  0  0  0  0  0  0  0  0
   -5.1533   -1.0867   -1.4639 C   0  0  0  0  0  0  0  0  0  0  0  0
   -5.0101   -2.2058   -2.2133 O   0  0  0  0  0  0  0  0  0  0  0  0
   -4.5307   -3.2966   -1.4574 C   0  0  0  0  0  0  0  0  0  0  0  0
   -3.5278   -2.6589   -0.5140 C   0  0  0  0  0  0  0  0  0  0  0  0
   -2.8606   -1.5381   -1.0529 N   0  0  0  0  0  0  0  0  0  0  0  0
   -1.4722   -1.3999   -1.2559 C   0  0  0  0  0  0  0  0  0  0  0  0
   -0.7831   -2.3943   -0.9119 O   0  0  0  0  0  0  0  0  0  0  0  0
   -0.8941   -0.2899   -1.7809 N   0  0  0  0  0  0  0  0  0  0  0  0
    0.3475    0.1596   -2.0837 C   0  0  0  0  0  0  0  0  0  0  0  0
    1.2537    0.3453   -0.7949 C   0  0  1  0  0  0  0  0  0  0  0  0
    1.2776   -1.1796   -0.2890 C   0  0  0  0  0  0  0  0  0  0  0  0
    2.3002   -1.2104    0.8303 C   0  0  0  0  0  0  0  0  0  0  0  0
    3.6535   -0.9911    0.2335 C   0  0  0  0  0  0  0  0  0  0  0  0
    3.7008    0.1536   -0.6065 N   0  0  0  0  0  0  0  0  0  0  0  0
    4.0520    1.3772    0.0323 C   0  0  0  0  0  0  0  0  0  0  0  0
    5.3944    1.2425    0.6299 C   0  0  0  0  0  0  0  0  0  0  0  0
    5.5291    0.7937    1.9154 C   0  0  0  0  0  0  0  0  0  0  0  0
    6.8109    0.6753    2.4573 C   0  0  0  0  0  0  0  0  0  0  0  0
    7.8943    1.0059    1.7026 C   0  0  0  0  0  0  0  0  0  0  0  0
    7.7949    1.4620    0.4023 C   0  0  0  0  0  0  0  0  0  0  0  0
    6.4988    1.5666   -0.1029 C   0  0  0  0  0  0  0  0  0  0  0  0
    2.6877    0.2418   -1.5982 C   0  0  0  0  0  0  0  0  0  0  0  0
  1  2  1  0
  2  3  2  0
  2  4  2  0
  2  5  1  0
  5  6  1  0
  7  6  1  1
  7  8  1  0
  8  9  1  0
  9 10  1  0
 10 11  1  0
 11 12  1  0
 12 13  1  0
 13 14  2  0
 13 15  1  0
 15 16  1  0
 17 16  1  6
 17 18  1  0
 18 19  1  0
 19 20  1  0
 20 21  1  0
 21 22  1  0
 22 23  1  0
 23 24  2  0
 24 25  1  0
 25 26  2  0
 26 27  1  0
 27 28  2  0
 21 29  1  0
 12  7  1  0
 29 17  1  0
 28 23  1  0
M  END
>  <zinc_id>  (1) 
ZINC001667676417

>  <smiles>  (1) 
CS(=O)(=O)NC[C@@H]1COCCN1C(=O)NC[C@H]1CCCN(Cc2ccccc2)C1

$$$$
