
     RDKit          3D

 24 26  0  0  0  0  0  0  0  0999 V2000
    7.3046    0.2325   -0.2336 C   0  0  0  0  0  0  0  0  0  0  0  0
    6.8615   -0.2107    1.0506 C   0  0  0  0  0  0  0  0  0  0  0  0
    5.4968    0.2847    1.1242 C   0  0  0  0  0  0  0  0  0  0  0  0
    4.5545   -0.3036   -0.0415 C   0  0  1  0  0  0  0  0  0  0  0  0
    4.7166   -1.8878    0.3484 C   0  0  0  0  0  0  0  0  0  0  0  0
    4.2596   -2.1777    1.6864 C   0  0  0  0  0  0  0  0  0  0  0  0
    3.2160   -0.0943    0.7619 C   0  0  0  0  0  0  0  0  0  0  0  0
    3.1536    0.3672    1.8856 O   0  0  0  0  0  0  0  0  0  0  0  0
    2.1103   -0.4981    0.0377 N   0  0  0  0  0  0  0  0  0  0  0  0
    0.8484   -0.2593    0.8986 C   0  0  1  0  0  0  0  0  0  0  0  0
    0.9819    1.3515    0.9356 C   0  0  0  0  0  0  0  0  0  0  0  0
   -0.1487   -0.5582   -0.2983 C   0  0  0  0  0  0  0  0  0  0  0  0
   -0.0891    0.2854   -1.5341 C   0  0  0  0  0  0  0  0  0  0  0  0
   -0.8196    1.3896   -0.9177 N   0  0  0  0  0  0  0  0  0  0  0  0
   -1.8967    1.1745    0.0260 C   0  0  0  0  0  0  0  0  0  0  0  0
   -2.9314    0.4074   -0.6541 C   0  0  0  0  0  0  0  0  0  0  0  0
   -4.1910    0.6768   -0.2650 N   0  0  0  0  0  0  0  0  0  0  0  0
   -5.0587   -0.0816   -0.9385 C   0  0  0  0  0  0  0  0  0  0  0  0
   -6.5220   -0.0267   -0.7435 C   0  0  0  0  0  0  0  0  0  0  0  0
   -6.9724   -0.2694    0.7064 C   0  0  0  0  0  0  0  0  0  0  0  0
   -7.0650    1.0665    0.1071 C   0  0  0  0  0  0  0  0  0  0  0  0
   -4.3040   -0.8260   -1.7544 N   0  0  0  0  0  0  0  0  0  0  0  0
   -3.0221   -0.5305   -1.5816 N   0  0  0  0  0  0  0  0  0  0  0  0
   -0.4831    0.4301   -0.6062 C   0  0  0  0  0  0  0  0  0  0  0  0
  1  2  1  0
  2  3  1  0
  4  3  1  1
  4  5  1  0
  5  6  1  0
  4  7  1  0
  7  8  2  0
  7  9  1  0
  9 10  1  0
 10 11  1  6
 10 12  1  0
 12 13  1  0
 13 14  1  0
 14 15  1  0
 15 16  1  0
 16 17  2  0
 17 18  1  0
 18 19  1  0
 19 20  1  0
 20 21  1  0
 18 22  2  0
 22 23  1  0
 14 24  1  0
 24 12  1  0
 23 16  1  0
 21 19  1  0
M  END
>  <zinc_id>  (1) 
ZINC001485529944

>  <smiles>  (1) 
CCC[C@@H](CC)C(=O)N[C@@H](C)C1CN(Cc2nc(C3CC3)n[nH]2)C1

$$$$
