
     RDKit          3D

 25 26  0  0  0  0  0  0  0  0999 V2000
   -6.1631    1.7496    0.8068 C   0  0  0  0  0  0  0  0  0  0  0  0
   -5.7259    1.1425   -0.5212 C   0  0  0  0  0  0  0  0  0  0  0  0
   -5.0308   -0.1526   -0.2813 C   0  0  0  0  0  0  0  0  0  0  0  0
   -4.3672   -0.6515   -1.5136 C   0  0  0  0  0  0  0  0  0  0  0  0
   -3.5875    0.2930   -2.1203 N   0  0  0  0  0  0  0  0  0  0  0  0
   -2.1456    0.4266   -1.4320 C   0  0  2  0  0  0  0  0  0  0  0  0
   -1.7252   -1.1524   -1.8031 C   0  0  0  0  0  0  0  0  0  0  0  0
   -2.6861    0.0458    0.0511 C   0  0  0  0  0  0  0  0  0  0  0  0
   -1.6452    0.1100    0.9773 N   0  0  0  0  0  0  0  0  0  0  0  0
   -0.4398   -0.5672    1.1123 C   0  0  0  0  0  0  0  0  0  0  0  0
   -0.1698   -1.4438    0.2561 O   0  0  0  0  0  0  0  0  0  0  0  0
    0.4885   -0.3187    2.1580 N   0  0  0  0  0  0  0  0  0  0  0  0
    1.7365   -0.8798    2.4318 C   0  0  0  0  0  0  0  0  0  0  0  0
    2.7757   -0.6490    1.4170 C   0  0  1  0  0  0  0  0  0  0  0  0
    3.9714   -1.2713    1.8847 O   0  0  0  0  0  0  0  0  0  0  0  0
    2.4033   -1.1618    0.0781 C   0  0  0  0  0  0  0  0  0  0  0  0
    3.5409   -1.3075   -0.8907 C   0  0  0  0  0  0  0  0  0  0  0  0
    4.8360   -0.9573   -0.1931 C   0  0  0  0  0  0  0  0  0  0  0  0
    4.9415    0.5616   -0.1105 C   0  0  0  0  0  0  0  0  0  0  0  0
    5.6783    1.0841   -1.2968 C   0  0  0  0  0  0  0  0  0  0  0  0
    5.6801    0.8781    1.1787 C   0  0  0  0  0  0  0  0  0  0  0  0
    3.5382    1.1729   -0.0180 C   0  0  0  0  0  0  0  0  0  0  0  0
    3.0675    0.8529    1.4051 C   0  0  0  0  0  0  0  0  0  0  0  0
   -4.0493    1.6081   -2.3321 C   0  0  0  0  0  0  0  0  0  0  0  0
   -4.9226    2.1647   -1.2442 C   0  0  0  0  0  0  0  0  0  0  0  0
  1  2  1  0
  2  3  1  0
  3  4  1  0
  4  5  1  0
  5  6  1  0
  6  7  1  6
  6  8  1  0
  8  9  1  0
  9 10  1  0
 10 11  2  0
 10 12  1  0
 12 13  1  0
 13 14  1  0
 14 15  1  1
 14 16  1  0
 16 17  1  0
 17 18  1  0
 18 19  1  0
 19 20  1  0
 19 21  1  0
 19 22  1  0
 22 23  1  0
  5 24  1  0
 24 25  1  0
 25  2  1  0
 23 14  1  0
M  END
>  <zinc_id>  (1) 
ZINC001667676412

>  <smiles>  (1) 
CC1CCN([C@H](C)CNC(=O)NC[C@@]2(O)CCCC(C)(C)CC2)CC1

$$$$
