
     RDKit          3D

 25 27  0  0  0  0  0  0  0  0999 V2000
   -5.2328   -1.7402    0.6027 C   0  0  0  0  0  0  0  0  0  0  0  0
   -5.4404   -0.3385    0.1399 C   0  0  0  0  0  0  0  0  0  0  0  0
   -6.4414    0.5419    0.3183 N   0  0  0  0  0  0  0  0  0  0  0  0
   -6.1501    1.6701   -0.1502 O   0  0  0  0  0  0  0  0  0  0  0  0
   -4.9167    1.6946   -0.6969 C   0  0  0  0  0  0  0  0  0  0  0  0
   -4.4560    0.4010   -0.5176 C   0  0  0  0  0  0  0  0  0  0  0  0
   -3.2684   -0.1466   -1.1571 C   0  0  0  0  0  0  0  0  0  0  0  0
   -2.1286    0.2172   -0.5535 N   0  0  0  0  0  0  0  0  0  0  0  0
   -1.9781   -0.4342    0.8058 C   0  0  0  0  0  0  0  0  0  0  0  0
   -0.6490    0.1245    0.5678 C   0  0  0  0  0  0  0  0  0  0  0  0
   -0.1125   -0.0926   -1.0072 C   0  0  2  0  0  0  0  0  0  0  0  0
   -0.3818   -1.7535   -1.0264 C   0  0  0  0  0  0  0  0  0  0  0  0
    1.3336   -0.2661   -0.3895 N   0  0  0  0  0  0  0  0  0  0  0  0
    2.1424   -1.3834   -0.6139 C   0  0  0  0  0  0  0  0  0  0  0  0
    1.7464   -2.2632   -1.4187 O   0  0  0  0  0  0  0  0  0  0  0  0
    3.4478   -1.4466    0.1342 C   0  0  1  0  0  0  0  0  0  0  0  0
    4.4728   -2.2735   -0.5838 C   0  0  0  0  0  0  0  0  0  0  0  0
    3.9884    0.0153    0.0473 C   0  0  0  0  0  0  0  0  0  0  0  0
    3.7942    0.9520   -0.8534 C   0  0  0  0  0  0  0  0  0  0  0  0
    3.1450    0.8030   -2.1915 C   0  0  0  0  0  0  0  0  0  0  0  0
    4.3067    2.1315   -0.3378 N   0  0  0  0  0  0  0  0  0  0  0  0
    4.7933    1.8632    0.8854 N   0  0  0  0  0  0  0  0  0  0  0  0
    4.6380    0.5692    1.1834 C   0  0  0  0  0  0  0  0  0  0  0  0
    4.9468   -0.1956    2.4136 C   0  0  0  0  0  0  0  0  0  0  0  0
   -1.5995    1.3502    0.1163 C   0  0  0  0  0  0  0  0  0  0  0  0
  1  2  1  0
  2  3  2  0
  3  4  1  0
  4  5  1  0
  5  6  2  0
  6  7  1  0
  7  8  1  0
  8  9  1  0
  9 10  1  0
 10 11  1  0
 11 12  1  1
 11 13  1  0
 13 14  1  0
 14 15  2  0
 14 16  1  0
 16 17  1  6
 16 18  1  0
 18 19  1  0
 19 20  1  0
 19 21  2  0
 21 22  1  0
 22 23  1  0
 23 24  1  0
 10 25  1  0
  6  2  1  0
 25  8  1  0
 23 18  2  0
M  END
>  <zinc_id>  (1) 
ZINC001485529989

>  <smiles>  (1) 
Cc1nocc1CN1CC([C@H](C)NC(=O)[C@@H](C)c2c(C)n[nH]c2C)C1

$$$$
