
     RDKit          3D

 29 32  0  0  0  0  0  0  0  0999 V2000
   -2.7643   -2.1470    3.2011 C   0  0  0  0  0  0  0  0  0  0  0  0
   -3.1883   -0.5398    3.2460 C   0  0  1  0  0  0  0  0  0  0  0  0
   -1.8448   -0.0577    2.5835 N   0  0  0  0  0  0  0  0  0  0  0  0
   -1.4516   -0.6115    1.3757 C   0  0  0  0  0  0  0  0  0  0  0  0
   -2.2361   -1.4676    0.9111 O   0  0  0  0  0  0  0  0  0  0  0  0
   -0.3064   -0.3377    0.6240 N   0  0  0  0  0  0  0  0  0  0  0  0
    0.0695   -0.9163   -0.6081 C   0  0  0  0  0  0  0  0  0  0  0  0
    1.4967   -0.2664   -1.0625 C   0  0  1  0  0  0  0  0  0  0  0  0
    0.9119    1.2647   -1.1053 C   0  0  0  0  0  0  0  0  0  0  0  0
    2.0487    2.1570   -0.6563 C   0  0  0  0  0  0  0  0  0  0  0  0
    3.3835    1.4502   -0.7940 C   0  0  0  0  0  0  0  0  0  0  0  0
    3.4846    0.3006    0.0835 N   0  0  0  0  0  0  0  0  0  0  0  0
    4.0992   -0.7974   -0.6244 C   0  0  0  0  0  0  0  0  0  0  0  0
    5.4857   -0.4769   -1.0572 C   0  0  0  0  0  0  0  0  0  0  0  0
    5.7978    0.2774   -2.1628 C   0  0  0  0  0  0  0  0  0  0  0  0
    7.0920    0.5561   -2.5440 C   0  0  0  0  0  0  0  0  0  0  0  0
    8.1052    0.0557   -1.7810 C   0  0  0  0  0  0  0  0  0  0  0  0
    7.8010   -0.7012   -0.6713 C   0  0  0  0  0  0  0  0  0  0  0  0
    6.5182   -0.9784   -0.2929 C   0  0  0  0  0  0  0  0  0  0  0  0
    2.1388   -0.0808    0.4372 C   0  0  0  0  0  0  0  0  0  0  0  0
   -4.1229   -0.5131    1.9383 C   0  0  0  0  0  0  0  0  0  0  0  0
   -4.9312   -1.5075    1.6205 C   0  0  0  0  0  0  0  0  0  0  0  0
   -5.7115   -1.4214    0.4946 C   0  0  0  0  0  0  0  0  0  0  0  0
   -5.6312   -0.2731   -0.2950 C   0  0  0  0  0  0  0  0  0  0  0  0
   -4.7896    0.7534    0.0434 C   0  0  0  0  0  0  0  0  0  0  0  0
   -4.0176    0.6240    1.1908 C   0  0  0  0  0  0  0  0  0  0  0  0
   -4.9112    1.8549   -0.9801 C   0  0  0  0  0  0  0  0  0  0  0  0
   -6.2174    1.4562   -1.6433 C   0  0  0  0  0  0  0  0  0  0  0  0
   -6.3087    0.0549   -1.4713 O   0  0  0  0  0  0  0  0  0  0  0  0
  2  1  1  6
  2  3  1  0
  3  4  1  0
  4  5  2  0
  4  6  1  0
  6  7  1  0
  8  7  1  1
  8  9  1  0
  9 10  1  0
 10 11  1  0
 11 12  1  0
 12 13  1  0
 13 14  1  0
 14 15  2  0
 15 16  1  0
 16 17  2  0
 17 18  1  0
 18 19  2  0
 12 20  1  0
  2 21  1  0
 21 22  2  0
 22 23  1  0
 23 24  2  0
 24 25  1  0
 25 26  2  0
 25 27  1  0
 27 28  1  0
 28 29  1  0
 20  8  1  0
 26 21  1  0
 19 14  1  0
 29 24  1  0
M  END
>  <zinc_id>  (1) 
ZINC001667676436

>  <smiles>  (1) 
C[C@@H](NC(=O)NC[C@H]1CCCN(Cc2ccccc2)C1)c1ccc2c(c1)CCO2

$$$$
