
     RDKit          3D

 31 34  0  0  0  0  0  0  0  0999 V2000
    8.8464    1.6298   -0.1640 C   0  0  0  0  0  0  0  0  0  0  0  0
    8.0240    0.6026   -0.7055 O   0  0  0  0  0  0  0  0  0  0  0  0
    7.4737   -0.3916    0.0955 C   0  0  0  0  0  0  0  0  0  0  0  0
    7.7640   -0.2976    1.3148 O   0  0  0  0  0  0  0  0  0  0  0  0
    6.6339   -1.4846   -0.3182 C   0  0  0  0  0  0  0  0  0  0  0  0
    5.3694   -1.2651   -1.0766 C   0  0  0  0  0  0  0  0  0  0  0  0
    4.6784   -1.0384    0.2572 C   0  0  0  0  0  0  0  0  0  0  0  0
    5.7632   -1.8609    0.8732 C   0  0  0  0  0  0  0  0  0  0  0  0
    3.3625   -1.6395    0.4826 C   0  0  0  0  0  0  0  0  0  0  0  0
    2.3570   -1.1227   -0.7039 C   0  0  1  0  0  0  0  0  0  0  0  0
    1.0820   -1.3143    0.1775 N   0  0  0  0  0  0  0  0  0  0  0  0
   -0.1269   -0.8681   -0.3681 C   0  0  0  0  0  0  0  0  0  0  0  0
   -0.0735   -0.3475   -1.5417 O   0  0  0  0  0  0  0  0  0  0  0  0
   -1.4055   -0.9317    0.2388 N   0  0  0  0  0  0  0  0  0  0  0  0
   -2.5933   -0.4090   -0.4728 C   0  0  0  0  0  0  0  0  0  0  0  0
   -2.2046    1.1563   -0.6915 C   0  0  1  0  0  0  0  0  0  0  0  0
   -3.5903    1.5173   -1.4532 C   0  0  0  0  0  0  0  0  0  0  0  0
   -4.0352    2.8578   -1.0045 C   0  0  0  0  0  0  0  0  0  0  0  0
   -4.7713    2.6269    0.3011 C   0  0  0  0  0  0  0  0  0  0  0  0
   -4.0454    1.5830    0.9315 N   0  0  0  0  0  0  0  0  0  0  0  0
   -4.6781    0.8058    1.8874 C   0  0  0  0  0  0  0  0  0  0  0  0
   -5.8933    0.1151    1.3690 C   0  0  0  0  0  0  0  0  0  0  0  0
   -7.1395    0.5462    1.7994 C   0  0  0  0  0  0  0  0  0  0  0  0
   -8.2870   -0.0542    1.3417 C   0  0  0  0  0  0  0  0  0  0  0  0
   -8.1919   -1.1074    0.4339 C   0  0  0  0  0  0  0  0  0  0  0  0
   -6.9711   -1.5616   -0.0160 C   0  0  0  0  0  0  0  0  0  0  0  0
   -5.8402   -0.9247    0.4754 C   0  0  0  0  0  0  0  0  0  0  0  0
   -2.6759    1.6021    0.7904 C   0  0  0  0  0  0  0  0  0  0  0  0
    2.5129    0.4653   -0.2759 C   0  0  0  0  0  0  0  0  0  0  0  0
    3.9479    0.7732   -0.6840 C   0  0  0  0  0  0  0  0  0  0  0  0
    4.7077    0.3374    0.4414 O   0  0  0  0  0  0  0  0  0  0  0  0
  1  2  1  0
  2  3  1  0
  3  4  2  0
  3  5  1  0
  5  6  1  0
  6  7  1  0
  7  8  1  0
  7  9  1  0
  9 10  1  0
 10 11  1  1
 11 12  1  0
 12 13  2  0
 12 14  1  0
 14 15  1  0
 16 15  1  1
 16 17  1  0
 17 18  1  0
 18 19  1  0
 19 20  1  0
 20 21  1  0
 21 22  1  0
 22 23  2  0
 23 24  1  0
 24 25  2  0
 25 26  1  0
 26 27  2  0
 20 28  1  0
 10 29  1  0
 29 30  1  0
 30 31  1  0
  8  5  1  0
 28 16  1  0
 31  7  1  0
 27 22  1  0
M  END
>  <zinc_id>  (1) 
ZINC001667676422

>  <smiles>  (1) 
COC(=O)C1CC2(C1)C[C@@H](NC(=O)NC[C@H]1CCCN(Cc3ccccc3)C1)CCO2

$$$$
