
     RDKit          3D

 25 27  0  0  0  0  0  0  0  0999 V2000
   -6.0583   -2.4493   -0.1484 C   0  0  0  0  0  0  0  0  0  0  0  0
   -5.7081   -1.0284    0.2018 C   0  0  0  0  0  0  0  0  0  0  0  0
   -6.5221   -0.0536    0.6773 N   0  0  0  0  0  0  0  0  0  0  0  0
   -5.8299    1.0541    0.8420 O   0  0  0  0  0  0  0  0  0  0  0  0
   -4.5714    0.8771    0.4958 C   0  0  0  0  0  0  0  0  0  0  0  0
   -4.4706   -0.4511    0.0827 C   0  0  0  0  0  0  0  0  0  0  0  0
   -3.2733   -1.1536   -0.3835 C   0  0  0  0  0  0  0  0  0  0  0  0
   -2.1255   -0.3509   -0.4582 N   0  0  0  0  0  0  0  0  0  0  0  0
   -1.5947    0.2915    0.7065 C   0  0  0  0  0  0  0  0  0  0  0  0
   -1.0175    1.2566   -0.3660 C   0  0  0  0  0  0  0  0  0  0  0  0
   -0.0353    0.2125   -1.1670 C   0  0  1  0  0  0  0  0  0  0  0  0
    0.3307    1.4069   -2.3431 C   0  0  0  0  0  0  0  0  0  0  0  0
    1.2733    0.5547   -0.4709 N   0  0  0  0  0  0  0  0  0  0  0  0
    1.7359    0.3009    0.7346 C   0  0  0  0  0  0  0  0  0  0  0  0
    1.1599   -0.3237    1.6314 O   0  0  0  0  0  0  0  0  0  0  0  0
    3.2079    0.8126    1.2222 C   0  0  2  0  0  0  0  0  0  0  0  0
    3.0933    2.1222    0.1283 C   0  0  0  0  0  0  0  0  0  0  0  0
    4.0940   -0.0358    0.2544 C   0  0  0  0  0  0  0  0  0  0  0  0
    5.4724    0.1108    0.1239 C   0  0  0  0  0  0  0  0  0  0  0  0
    6.2195    1.2326    0.7921 C   0  0  0  0  0  0  0  0  0  0  0  0
    5.9086   -0.8652   -0.6736 N   0  0  0  0  0  0  0  0  0  0  0  0
    4.9048   -1.6248   -1.0703 N   0  0  0  0  0  0  0  0  0  0  0  0
    3.7331   -1.1242   -0.4887 C   0  0  0  0  0  0  0  0  0  0  0  0
    2.4208   -1.7739   -0.6628 C   0  0  0  0  0  0  0  0  0  0  0  0
   -2.3475    1.0019   -0.9649 C   0  0  0  0  0  0  0  0  0  0  0  0
  1  2  1  0
  2  3  2  0
  3  4  1  0
  4  5  1  0
  5  6  2  0
  6  7  1  0
  7  8  1  0
  8  9  1  0
  9 10  1  0
 10 11  1  0
 11 12  1  6
 11 13  1  0
 13 14  1  0
 14 15  2  0
 14 16  1  0
 16 17  1  6
 16 18  1  0
 18 19  1  0
 19 20  1  0
 19 21  2  0
 21 22  1  0
 22 23  1  0
 23 24  1  0
 10 25  1  0
  6  2  1  0
 25  8  1  0
 23 18  2  0
M  END
>  <zinc_id>  (1) 
ZINC001485529984

>  <smiles>  (1) 
Cc1nocc1CN1CC([C@@H](C)NC(=O)[C@H](C)c2c(C)n[nH]c2C)C1

$$$$
