
     RDKit          3D

 25 27  0  0  0  0  0  0  0  0999 V2000
    2.5389   -1.8472    0.7610 C   0  0  0  0  0  0  0  0  0  0  0  0
    1.7135   -1.6524   -0.6329 C   0  0  2  0  0  0  0  0  0  0  0  0
    2.6562   -0.6024   -1.2650 N   0  0  0  0  0  0  0  0  0  0  0  0
    3.4774    0.2263   -0.5340 C   0  0  0  0  0  0  0  0  0  0  0  0
    3.4516    0.1066    0.7478 O   0  0  0  0  0  0  0  0  0  0  0  0
    4.3341    1.1894   -1.2340 C   0  0  0  0  0  0  0  0  0  0  0  0
    5.3095    1.7885   -0.3091 C   0  0  0  0  0  0  0  0  0  0  0  0
    6.3225    0.9026    0.3266 C   0  0  0  0  0  0  0  0  0  0  0  0
    6.0062   -0.2496    1.2147 C   0  0  0  0  0  0  0  0  0  0  0  0
    7.6668    1.5732    0.5609 C   0  0  0  0  0  0  0  0  0  0  0  0
    7.5222    0.6460   -0.6598 C   0  0  0  0  0  0  0  0  0  0  0  0
    0.6767   -0.5233   -0.0170 C   0  0  0  0  0  0  0  0  0  0  0  0
   -0.0706   -1.1799    1.1239 C   0  0  0  0  0  0  0  0  0  0  0  0
   -0.4717   -2.1439    0.0953 N   0  0  0  0  0  0  0  0  0  0  0  0
   -1.7418   -2.7792    0.3166 C   0  0  0  0  0  0  0  0  0  0  0  0
   -2.8421   -1.8018    0.1658 C   0  0  0  0  0  0  0  0  0  0  0  0
   -3.7267   -0.9905    0.0315 C   0  0  0  0  0  0  0  0  0  0  0  0
   -4.7530   -0.0176   -0.1478 C   0  0  0  0  0  0  0  0  0  0  0  0
   -5.1519    0.3224   -1.4012 C   0  0  0  0  0  0  0  0  0  0  0  0
   -6.1524    1.2590   -1.5444 C   0  0  0  0  0  0  0  0  0  0  0  0
   -6.7469    1.8468   -0.4604 C   0  0  0  0  0  0  0  0  0  0  0  0
   -7.7409    2.7763   -0.5804 F   0  0  0  0  0  0  0  0  0  0  0  0
   -6.3443    1.5045    0.7893 C   0  0  0  0  0  0  0  0  0  0  0  0
   -5.3448    0.5705    0.9442 C   0  0  0  0  0  0  0  0  0  0  0  0
   -0.5885   -0.9242   -0.7493 C   0  0  0  0  0  0  0  0  0  0  0  0
  2  1  1  1
  2  3  1  0
  3  4  1  0
  4  5  2  0
  4  6  1  0
  6  7  1  0
  7  8  1  0
  8  9  1  0
  8 10  1  0
 10 11  1  0
  2 12  1  0
 12 13  1  0
 13 14  1  0
 14 15  1  0
 15 16  1  0
 16 17  3  0
 17 18  1  0
 18 19  2  0
 19 20  1  0
 20 21  2  0
 21 22  1  0
 21 23  1  0
 23 24  2  0
 14 25  1  0
 11  8  1  0
 25 12  1  0
 24 18  1  0
M  END
>  <zinc_id>  (1) 
ZINC001485529991

>  <smiles>  (1) 
C[C@H](NC(=O)CCC1(C)CC1)C1CN(CC#Cc2ccc(F)cc2)C1

$$$$
