
     RDKit          3D

 21 22  0  0  0  0  0  0  0  0999 V2000
   -5.0782   -0.6182   -1.1219 C   0  0  0  0  0  0  0  0  0  0  0  0
   -4.7793    0.8276   -0.9154 C   0  0  0  0  0  0  0  0  0  0  0  0
   -5.9463    1.4612   -0.1590 C   0  0  0  0  0  0  0  0  0  0  0  0
   -3.4656    1.1355   -0.2542 C   0  0  0  0  0  0  0  0  0  0  0  0
   -3.3391    0.5273    1.1187 C   0  0  0  0  0  0  0  0  0  0  0  0
   -3.3860   -0.9646    1.1429 C   0  0  0  0  0  0  0  0  0  0  0  0
   -2.2926   -1.5514    0.4096 N   0  0  0  0  0  0  0  0  0  0  0  0
   -1.0479   -1.2838    1.1419 C   0  0  0  0  0  0  0  0  0  0  0  0
   -0.3969   -0.6973   -0.1076 C   0  0  0  0  0  0  0  0  0  0  0  0
    0.3869   -1.9675   -0.7764 C   0  0  2  0  0  0  0  0  0  0  0  0
    1.3324   -2.2296    0.5384 C   0  0  0  0  0  0  0  0  0  0  0  0
    1.4345   -1.1283   -1.5412 N   0  0  0  0  0  0  0  0  0  0  0  0
    2.0370   -0.0866   -0.8184 C   0  0  0  0  0  0  0  0  0  0  0  0
    1.6994    0.0983    0.3622 O   0  0  0  0  0  0  0  0  0  0  0  0
    3.0657    0.7685   -1.4802 C   0  0  0  0  0  0  0  0  0  0  0  0
    3.5927    1.7753   -0.5417 C   0  0  0  0  0  0  0  0  0  0  0  0
    4.2456    1.1447    0.6419 C   0  0  0  0  0  0  0  0  0  0  0  0
    5.4269    0.2067    0.3770 C   0  0  0  0  0  0  0  0  0  0  0  0
    3.6023    1.1218    1.9479 C   0  0  0  0  0  0  0  0  0  0  0  0
    4.6970    2.1832    1.7312 C   0  0  0  0  0  0  0  0  0  0  0  0
   -1.7884   -0.7227   -0.6470 C   0  0  0  0  0  0  0  0  0  0  0  0
  1  2  1  0
  2  3  1  0
  2  4  1  0
  4  5  1  0
  5  6  1  0
  6  7  1  0
  7  8  1  0
  8  9  1  0
  9 10  1  0
 10 11  1  1
 10 12  1  0
 12 13  1  0
 13 14  2  0
 13 15  1  0
 15 16  1  0
 16 17  1  0
 17 18  1  0
 17 19  1  0
 19 20  1  0
  9 21  1  0
 21  7  1  0
 20 17  1  0
M  END
>  <zinc_id>  (1) 
ZINC001485529995

>  <smiles>  (1) 
CC(C)CCCN1CC([C@H](C)NC(=O)CCC2(C)CC2)C1

$$$$
