
     RDKit          3D

 24 24  0  0  0  0  0  0  0  0999 V2000
    6.7109   -0.0321    0.6539 C   0  0  0  0  0  0  0  0  0  0  0  0
    5.5253   -0.7032    1.2410 C   0  0  0  0  0  0  0  0  0  0  0  0
    5.7530   -1.3690    2.5539 C   0  0  0  0  0  0  0  0  0  0  0  0
    4.6156   -1.3761    0.3193 C   0  0  0  0  0  0  0  0  0  0  0  0
    3.9478   -0.6063   -0.7411 C   0  0  0  0  0  0  0  0  0  0  0  0
    4.9046    0.0785   -1.7225 C   0  0  0  0  0  0  0  0  0  0  0  0
    3.1782   -1.6172   -1.6139 C   0  0  0  0  0  0  0  0  0  0  0  0
    2.9391    0.3905   -0.3012 C   0  0  0  0  0  0  0  0  0  0  0  0
    3.0598    1.6234   -0.5376 O   0  0  0  0  0  0  0  0  0  0  0  0
    1.7946   -0.1310    0.4204 N   0  0  0  0  0  0  0  0  0  0  0  0
    0.8097    1.0881    0.8146 C   0  0  2  0  0  0  0  0  0  0  0  0
   -0.1300    0.1181    1.7297 C   0  0  0  0  0  0  0  0  0  0  0  0
   -0.0536    0.9459   -0.5514 C   0  0  0  0  0  0  0  0  0  0  0  0
   -1.1292    1.9977   -0.5546 C   0  0  0  0  0  0  0  0  0  0  0  0
   -2.1829    1.0165   -0.3332 N   0  0  0  0  0  0  0  0  0  0  0  0
   -3.1013    0.9003   -1.4394 C   0  0  0  0  0  0  0  0  0  0  0  0
   -4.2545    0.0615   -1.0837 C   0  0  0  0  0  0  0  0  0  0  0  0
   -5.1617   -0.1790   -1.9463 O   0  0  0  0  0  0  0  0  0  0  0  0
   -4.3893   -0.4845    0.1982 N   0  0  0  0  0  0  0  0  0  0  0  0
   -3.4114   -0.2659    1.2411 C   0  0  0  0  0  0  0  0  0  0  0  0
   -5.5709   -1.2983    0.5324 C   0  0  0  0  0  0  0  0  0  0  0  0
   -5.9934   -0.9333    1.9645 C   0  0  0  0  0  0  0  0  0  0  0  0
   -6.6981   -0.8831   -0.4217 C   0  0  0  0  0  0  0  0  0  0  0  0
   -1.1619   -0.0441   -0.4225 C   0  0  0  0  0  0  0  0  0  0  0  0
  1  2  1  0
  2  3  1  0
  2  4  1  0
  4  5  1  0
  5  6  1  0
  5  7  1  0
  5  8  1  0
  8  9  2  0
  8 10  1  0
 10 11  1  0
 11 12  1  1
 11 13  1  0
 13 14  1  0
 14 15  1  0
 15 16  1  0
 16 17  1  0
 17 18  2  0
 17 19  1  0
 19 20  1  0
 19 21  1  0
 21 22  1  0
 21 23  1  0
 15 24  1  0
 24 13  1  0
M  END
>  <zinc_id>  (1) 
ZINC001485529990

>  <smiles>  (1) 
CC(C)CC(C)(C)C(=O)N[C@H](C)C1CN(CC(=O)N(C)C(C)C)C1

$$$$
