
     RDKit          3D

 24 26  0  0  0  0  0  0  0  0999 V2000
    5.9313    2.6395   -0.7401 C   0  0  0  0  0  0  0  0  0  0  0  0
    4.6090    3.0539   -0.1919 C   0  0  0  0  0  0  0  0  0  0  0  0
    3.6235    1.9550   -0.1502 C   0  0  0  0  0  0  0  0  0  0  0  0
    4.2198    0.8604    0.8397 C   0  0  2  0  0  0  0  0  0  0  0  0
    5.5629    0.5645    0.0357 C   0  0  0  0  0  0  0  0  0  0  0  0
    6.2296   -0.4929    0.9422 C   0  0  0  0  0  0  0  0  0  0  0  0
    3.3672   -0.3486    0.3040 C   0  0  0  0  0  0  0  0  0  0  0  0
    3.7633   -1.0890   -0.5852 O   0  0  0  0  0  0  0  0  0  0  0  0
    2.0995   -0.5745    0.8785 N   0  0  0  0  0  0  0  0  0  0  0  0
    1.1914   -1.7140    0.4087 C   0  0  2  0  0  0  0  0  0  0  0  0
    2.0317   -2.1788   -0.8757 C   0  0  0  0  0  0  0  0  0  0  0  0
    0.1872   -0.7343   -0.4568 C   0  0  0  0  0  0  0  0  0  0  0  0
   -0.8091   -1.7231   -1.0214 C   0  0  0  0  0  0  0  0  0  0  0  0
   -1.1534   -1.9966    0.3797 N   0  0  0  0  0  0  0  0  0  0  0  0
   -2.5520   -2.3652    0.4307 C   0  0  0  0  0  0  0  0  0  0  0  0
   -3.3350   -1.2205   -0.0951 C   0  0  0  0  0  0  0  0  0  0  0  0
   -3.9764   -0.3583    0.7117 N   0  0  0  0  0  0  0  0  0  0  0  0
   -4.5653    0.5369   -0.0769 C   0  0  0  0  0  0  0  0  0  0  0  0
   -5.3749    1.6613    0.3990 C   0  0  0  0  0  0  0  0  0  0  0  0
   -6.6977    1.8388   -0.2376 C   0  0  0  0  0  0  0  0  0  0  0  0
   -5.5625    2.8417   -0.5509 C   0  0  0  0  0  0  0  0  0  0  0  0
   -4.2873    0.2260   -1.3710 N   0  0  0  0  0  0  0  0  0  0  0  0
   -3.5458   -0.8345   -1.3608 N   0  0  0  0  0  0  0  0  0  0  0  0
   -0.9573   -0.5477    0.5510 C   0  0  0  0  0  0  0  0  0  0  0  0
  1  2  1  0
  2  3  1  0
  4  3  1  6
  4  5  1  0
  5  6  1  0
  4  7  1  0
  7  8  2  0
  7  9  1  0
  9 10  1  0
 10 11  1  6
 10 12  1  0
 12 13  1  0
 13 14  1  0
 14 15  1  0
 15 16  1  0
 16 17  2  0
 17 18  1  0
 18 19  1  0
 19 20  1  0
 20 21  1  0
 18 22  2  0
 22 23  1  0
 14 24  1  0
 24 12  1  0
 23 16  1  0
 21 19  1  0
M  END
>  <zinc_id>  (1) 
ZINC001485529943

>  <smiles>  (1) 
CCC[C@H](CC)C(=O)N[C@H](C)C1CN(Cc2nc(C3CC3)n[nH]2)C1

$$$$
