
     RDKit          3D

 24 25  0  0  0  0  0  0  0  0999 V2000
    6.0475   -0.5178    3.2406 C   0  0  0  0  0  0  0  0  0  0  0  0
    5.0514   -0.1995    2.4390 C   0  0  0  0  0  0  0  0  0  0  0  0
    5.2581   -0.3887    0.9738 C   0  0  0  0  0  0  0  0  0  0  0  0
    5.1033    0.8684    0.3932 O   0  0  0  0  0  0  0  0  0  0  0  0
    5.2849    0.7104   -0.9752 C   0  0  0  0  0  0  0  0  0  0  0  0
    4.2493   -0.2235   -1.4845 C   0  0  0  0  0  0  0  0  0  0  0  0
    2.9410    0.1322   -1.3081 N   0  0  0  0  0  0  0  0  0  0  0  0
    2.3346    1.2500   -1.9755 C   0  0  0  0  0  0  0  0  0  0  0  0
    1.1852    0.9713   -1.0165 C   0  0  0  0  0  0  0  0  0  0  0  0
    0.6408   -0.4616   -1.5663 C   0  0  2  0  0  0  0  0  0  0  0  0
    0.2636    0.0914   -3.0512 C   0  0  0  0  0  0  0  0  0  0  0  0
   -0.8180   -0.2357   -1.0023 N   0  0  0  0  0  0  0  0  0  0  0  0
   -1.2122   -1.3938   -0.2460 C   0  0  0  0  0  0  0  0  0  0  0  0
   -0.4542   -2.3868   -0.1126 O   0  0  0  0  0  0  0  0  0  0  0  0
   -2.5323   -1.3972    0.3778 C   0  0  0  0  0  0  0  0  0  0  0  0
   -3.3480   -0.2488    0.1944 N   0  0  0  0  0  0  0  0  0  0  0  0
   -4.2709   -0.1135   -0.9141 C   0  0  0  0  0  0  0  0  0  0  0  0
   -5.6428    0.3444   -0.4750 C   0  0  0  0  0  0  0  0  0  0  0  0
   -5.6636    0.9124    0.8864 C   0  0  0  0  0  0  0  0  0  0  0  0
   -6.7932    0.8873    1.4742 O   0  0  0  0  0  0  0  0  0  0  0  0
   -4.4982    1.4581    1.5135 N   0  0  0  0  0  0  0  0  0  0  0  0
   -3.2802    0.8298    1.1348 C   0  0  0  0  0  0  0  0  0  0  0  0
   -2.1848    1.2129    1.6128 O   0  0  0  0  0  0  0  0  0  0  0  0
    2.3387    0.5714   -0.1133 C   0  0  0  0  0  0  0  0  0  0  0  0
  1  2  2  0
  2  3  1  0
  3  4  1  0
  4  5  1  0
  5  6  1  0
  6  7  1  0
  7  8  1  0
  8  9  1  0
  9 10  1  0
 10 11  1  6
 10 12  1  0
 12 13  1  0
 13 14  2  0
 13 15  1  0
 15 16  1  0
 16 17  1  0
 17 18  1  0
 18 19  1  0
 19 20  2  0
 19 21  1  0
 21 22  1  0
 22 23  2  0
  9 24  1  0
 24  7  1  0
 22 16  1  0
M  END
>  <zinc_id>  (1) 
ZINC001485529975

>  <smiles>  (1) 
C=CCOCCN1CC([C@H](C)NC(=O)CN2CCC(=O)NC2=O)C1

$$$$
