
     RDKit          3D

 23 25  0  0  0  0  0  0  0  0999 V2000
    1.6083   -2.7369    0.4115 C   0  0  0  0  0  0  0  0  0  0  0  0
    0.9890   -1.4085    1.1252 C   0  0  2  0  0  0  0  0  0  0  0  0
   -0.0639   -1.1541    0.0022 N   0  0  0  0  0  0  0  0  0  0  0  0
   -1.4191   -1.1809    0.3818 C   0  0  0  0  0  0  0  0  0  0  0  0
   -1.6748   -1.4099    1.5969 O   0  0  0  0  0  0  0  0  0  0  0  0
   -2.5268   -0.9545   -0.5761 C   0  0  0  0  0  0  0  0  0  0  0  0
   -3.8903   -1.0881    0.2910 C   0  0  2  0  0  0  0  0  0  0  0  0
   -4.9409   -0.8169   -0.8946 C   0  0  0  0  0  0  0  0  0  0  0  0
   -4.5563    0.2253   -1.8138 C   0  0  0  0  0  0  0  0  0  0  0  0
   -5.2787    1.5135   -1.3566 C   0  0  0  0  0  0  0  0  0  0  0  0
   -5.0992    1.4100    0.4377 S   0  0  0  0  0  0  0  0  0  0  0  0
   -6.4543    0.9926    0.9501 O   0  0  0  0  0  0  0  0  0  0  0  0
   -4.7748    2.7865    0.9346 O   0  0  0  0  0  0  0  0  0  0  0  0
   -3.8033    0.3917    0.9107 C   0  0  0  0  0  0  0  0  0  0  0  0
    2.0657   -0.3489    0.5265 C   0  0  0  0  0  0  0  0  0  0  0  0
    3.3799   -0.8673    1.0588 C   0  0  0  0  0  0  0  0  0  0  0  0
    3.8691   -0.9279   -0.2728 N   0  0  0  0  0  0  0  0  0  0  0  0
    4.9447   -0.0837   -0.5304 C   0  0  0  0  0  0  0  0  0  0  0  0
    4.7151    1.3793   -0.5274 C   0  0  0  0  0  0  0  0  0  0  0  0
    6.0238    2.0537   -0.8299 C   0  0  0  0  0  0  0  0  0  0  0  0
    7.1589    1.8097    0.1019 C   0  0  0  0  0  0  0  0  0  0  0  0
    7.1632    1.0819   -1.1941 C   0  0  0  0  0  0  0  0  0  0  0  0
    2.5648   -0.6665   -0.7946 C   0  0  0  0  0  0  0  0  0  0  0  0
  2  1  1  6
  2  3  1  0
  3  4  1  0
  4  5  2  0
  4  6  1  0
  7  6  1  6
  7  8  1  0
  8  9  1  0
  9 10  1  0
 10 11  1  0
 11 12  2  0
 11 13  2  0
 11 14  1  0
  2 15  1  0
 15 16  1  0
 16 17  1  0
 17 18  1  0
 18 19  1  0
 19 20  1  0
 20 21  1  0
 21 22  1  0
 17 23  1  0
 14  7  1  0
 23 15  1  0
 22 20  1  0
M  END
>  <zinc_id>  (1) 
ZINC001485529983

>  <smiles>  (1) 
C[C@H](NC(=O)C[C@@H]1CCCS(=O)(=O)C1)C1CN(CCC2CC2)C1

$$$$
