
     RDKit          3D

 25 27  0  0  0  0  0  0  0  0999 V2000
    6.2342    2.0286    0.7843 C   0  0  0  0  0  0  0  0  0  0  0  0
    6.9536    0.9707    0.3964 C   0  0  0  0  0  0  0  0  0  0  0  0
    6.2974   -0.3186   -0.0333 C   0  0  0  0  0  0  0  0  0  0  0  0
    4.8553   -0.1141    0.0932 N   0  0  0  0  0  0  0  0  0  0  0  0
    3.9848    0.4252   -0.9379 C   0  0  0  0  0  0  0  0  0  0  0  0
    3.3488    1.5374   -0.2151 C   0  0  0  0  0  0  0  0  0  0  0  0
    2.8478    0.7476    1.1968 C   0  0  1  0  0  0  0  0  0  0  0  0
    1.8063   -0.1595    0.3498 N   0  0  0  0  0  0  0  0  0  0  0  0
    0.6387   -0.3387    1.1708 C   0  0  0  0  0  0  0  0  0  0  0  0
   -0.1928    0.1468    0.0129 C   0  0  0  0  0  0  0  0  0  0  0  0
   -0.2205   -1.1554   -1.0079 C   0  0  1  0  0  0  0  0  0  0  0  0
   -0.9568   -2.1339    0.1059 C   0  0  0  0  0  0  0  0  0  0  0  0
   -1.5028   -0.6504   -1.7676 N   0  0  0  0  0  0  0  0  0  0  0  0
   -2.7172   -0.5778   -1.1493 C   0  0  0  0  0  0  0  0  0  0  0  0
   -2.7732   -0.9421    0.0344 O   0  0  0  0  0  0  0  0  0  0  0  0
   -3.9115   -0.0880   -1.8426 C   0  0  0  0  0  0  0  0  0  0  0  0
   -5.0415   -0.1323   -0.8631 C   0  0  0  0  0  0  0  0  0  0  0  0
   -6.0558   -0.9906   -0.8073 N   0  0  0  0  0  0  0  0  0  0  0  0
   -6.7978   -0.6295    0.2061 O   0  0  0  0  0  0  0  0  0  0  0  0
   -6.3266    0.4064    0.8080 N   0  0  0  0  0  0  0  0  0  0  0  0
   -5.2071    0.7706    0.1733 C   0  0  0  0  0  0  0  0  0  0  0  0
   -4.3426    1.9020    0.5159 C   0  0  0  0  0  0  0  0  0  0  0  0
    1.0648    0.8619   -0.3627 C   0  0  0  0  0  0  0  0  0  0  0  0
    4.0064   -0.3409    1.1376 C   0  0  0  0  0  0  0  0  0  0  0  0
    4.0080   -1.2253    2.0014 O   0  0  0  0  0  0  0  0  0  0  0  0
  1  2  2  0
  2  3  1  0
  3  4  1  0
  4  5  1  0
  5  6  1  0
  6  7  1  0
  7  8  1  6
  8  9  1  0
  9 10  1  0
 10 11  1  0
 11 12  1  1
 11 13  1  0
 13 14  1  0
 14 15  2  0
 14 16  1  0
 16 17  1  0
 17 18  2  0
 18 19  1  0
 19 20  1  0
 20 21  2  0
 21 22  1  0
 10 23  1  0
  7 24  1  0
 24 25  2  0
 24  4  1  0
 23  8  1  0
 21 17  1  0
M  END
>  <zinc_id>  (1) 
ZINC001485529929

>  <smiles>  (1) 
C=CCN1CC[C@@H](N2CC([C@@H](C)NC(=O)Cc3nonc3C)C2)C1=O

$$$$
