
     RDKit          3D

 24 26  0  0  0  0  0  0  0  0999 V2000
    5.8310    2.7999    0.0209 C   0  0  0  0  0  0  0  0  0  0  0  0
    5.7734    1.2811    0.0144 C   0  0  0  0  0  0  0  0  0  0  0  0
    6.8536    0.6174    0.3687 N   0  0  0  0  0  0  0  0  0  0  0  0
    6.4551   -0.9947    0.2533 S   0  0  0  0  0  0  0  0  0  0  0  0
    4.8158   -0.8004   -0.2794 C   0  0  0  0  0  0  0  0  0  0  0  0
    3.8845   -1.9413   -0.6003 C   0  0  0  0  0  0  0  0  0  0  0  0
    4.6645    0.5467   -0.3380 C   0  0  0  0  0  0  0  0  0  0  0  0
    3.4240    1.2303   -0.7872 C   0  0  0  0  0  0  0  0  0  0  0  0
    2.3928    0.2696   -1.0104 N   0  0  0  0  0  0  0  0  0  0  0  0
    2.0194   -0.2549    0.3328 C   0  0  0  0  0  0  0  0  0  0  0  0
    0.9150    0.7779    0.2829 C   0  0  0  0  0  0  0  0  0  0  0  0
   -0.4735    0.0908    0.7539 C   0  0  2  0  0  0  0  0  0  0  0  0
   -0.5039   -1.0274   -0.4221 C   0  0  0  0  0  0  0  0  0  0  0  0
   -1.3853    1.0989    0.0037 N   0  0  0  0  0  0  0  0  0  0  0  0
   -2.7137    0.6235   -0.2463 C   0  0  0  0  0  0  0  0  0  0  0  0
   -3.0476   -0.5349    0.1348 O   0  0  0  0  0  0  0  0  0  0  0  0
   -3.6221    1.5457   -0.9521 C   0  0  0  0  0  0  0  0  0  0  0  0
   -4.9698    0.9615   -1.1956 C   0  0  0  0  0  0  0  0  0  0  0  0
   -5.6661    0.6144    0.0029 N   0  0  0  0  0  0  0  0  0  0  0  0
   -6.4699    1.4916    0.6572 C   0  0  0  0  0  0  0  0  0  0  0  0
   -7.0143    0.8839    1.7525 C   0  0  0  0  0  0  0  0  0  0  0  0
   -6.5223   -0.4143    1.7646 C   0  0  0  0  0  0  0  0  0  0  0  0
   -5.7024   -0.5448    0.6837 C   0  0  0  0  0  0  0  0  0  0  0  0
    1.0618    0.8322   -1.1950 C   0  0  0  0  0  0  0  0  0  0  0  0
  1  2  1  0
  2  3  2  0
  3  4  1  0
  4  5  1  0
  5  6  1  0
  5  7  2  0
  7  8  1  0
  8  9  1  0
  9 10  1  0
 10 11  1  0
 11 12  1  0
 12 13  1  6
 12 14  1  0
 14 15  1  0
 15 16  2  0
 15 17  1  0
 17 18  1  0
 18 19  1  0
 19 20  1  0
 20 21  2  0
 21 22  1  0
 22 23  2  0
 11 24  1  0
  7  2  1  0
 24  9  1  0
 23 19  1  0
M  END
>  <zinc_id>  (1) 
ZINC001485529935

>  <smiles>  (1) 
Cc1nsc(C)c1CN1CC([C@H](C)NC(=O)CCn2cccc2)C1

$$$$
