
     RDKit          3D

 23 24  0  0  0  0  0  0  0  0999 V2000
    0.4503    0.0005    2.1977 C   0  0  0  0  0  0  0  0  0  0  0  0
    0.6504    0.0593    0.5679 C   0  0  2  0  0  0  0  0  0  0  0  0
   -0.8305    0.3274    0.1907 N   0  0  0  0  0  0  0  0  0  0  0  0
   -1.8932    0.0816    1.0188 C   0  0  0  0  0  0  0  0  0  0  0  0
   -1.6406   -0.3958    2.1683 O   0  0  0  0  0  0  0  0  0  0  0  0
   -3.2566    0.3600    0.5893 C   0  0  0  0  0  0  0  0  0  0  0  0
   -3.4241    0.8315   -0.5463 O   0  0  0  0  0  0  0  0  0  0  0  0
   -4.3714    0.1201    1.3965 N   0  0  0  0  0  0  0  0  0  0  0  0
   -5.7503    0.3302    1.1248 C   0  0  0  0  0  0  0  0  0  0  0  0
   -6.3063   -0.4561   -0.0104 C   0  0  0  0  0  0  0  0  0  0  0  0
   -5.6972   -0.2415   -1.4023 C   0  0  0  0  0  0  0  0  0  0  0  0
   -7.0598    0.2940   -1.0643 C   0  0  0  0  0  0  0  0  0  0  0  0
    0.5546   -1.5840    0.4004 C   0  0  0  0  0  0  0  0  0  0  0  0
    0.7236   -1.7320   -1.1260 C   0  0  0  0  0  0  0  0  0  0  0  0
    2.1493   -1.3528   -0.9923 N   0  0  0  0  0  0  0  0  0  0  0  0
    2.2488    0.0446   -1.1644 C   0  0  0  0  0  0  0  0  0  0  0  0
    3.5770    0.6600   -1.0350 C   0  0  0  0  0  0  0  0  0  0  0  0
    3.6671    1.9007   -1.1869 O   0  0  0  0  0  0  0  0  0  0  0  0
    4.7915   -0.0222   -0.7479 N   0  0  0  0  0  0  0  0  0  0  0  0
    6.0325    0.6819   -0.6413 C   0  0  0  0  0  0  0  0  0  0  0  0
    7.2694    0.0669   -0.3598 N   0  0  0  0  0  0  0  0  0  0  0  0
    6.0495    1.9302   -0.8050 O   0  0  0  0  0  0  0  0  0  0  0  0
    2.0659   -1.9046    0.3342 C   0  0  0  0  0  0  0  0  0  0  0  0
  2  1  1  1
  2  3  1  0
  3  4  1  0
  4  5  2  0
  4  6  1  0
  6  7  2  0
  6  8  1  0
  8  9  1  0
  9 10  1  0
 10 11  1  0
 11 12  1  0
  2 13  1  0
 13 14  1  0
 14 15  1  0
 15 16  1  0
 16 17  1  0
 17 18  2  0
 17 19  1  0
 19 20  1  0
 20 21  1  0
 20 22  2  0
 15 23  1  0
 12 10  1  0
 23 13  1  0
M  END
>  <zinc_id>  (1) 
ZINC001485529921

>  <smiles>  (1) 
C[C@H](NC(=O)C(=O)NCC1CC1)C1CN(CC(=O)NC(N)=O)C1

$$$$
