
     RDKit          3D

 25 26  0  0  0  0  0  0  0  0999 V2000
   -7.4228    0.6477    1.6918 C   0  0  0  0  0  0  0  0  0  0  0  0
   -6.7378    0.5715    0.3553 C   0  0  0  0  0  0  0  0  0  0  0  0
   -6.3214   -0.7887   -0.0730 C   0  0  0  0  0  0  0  0  0  0  0  0
   -4.9811   -1.2526    0.3350 C   0  0  0  0  0  0  0  0  0  0  0  0
   -3.9272   -0.2921    0.3563 N   0  0  0  0  0  0  0  0  0  0  0  0
   -3.6064    0.0728   -1.1521 C   0  0  2  0  0  0  0  0  0  0  0  0
   -3.1208   -1.4528   -1.5455 C   0  0  0  0  0  0  0  0  0  0  0  0
   -2.1094    0.6633   -0.8092 C   0  0  0  0  0  0  0  0  0  0  0  0
   -1.3587   -0.3860   -0.2181 N   0  0  0  0  0  0  0  0  0  0  0  0
   -0.0444   -0.1744    0.1784 C   0  0  0  0  0  0  0  0  0  0  0  0
    0.4057    0.9806   -0.0283 O   0  0  0  0  0  0  0  0  0  0  0  0
    0.8319   -1.0815    0.7754 N   0  0  0  0  0  0  0  0  0  0  0  0
    2.1514   -0.9469    1.1946 C   0  0  0  0  0  0  0  0  0  0  0  0
    3.2260   -0.6132    0.2261 C   0  0  2  0  0  0  0  0  0  0  0  0
    2.9318    0.6030   -0.3556 O   0  0  0  0  0  0  0  0  0  0  0  0
    3.4103   -1.7078   -0.8239 C   0  0  0  0  0  0  0  0  0  0  0  0
    4.5687   -1.3263   -1.7464 C   0  0  0  0  0  0  0  0  0  0  0  0
    4.5763    0.1660   -1.8900 C   0  0  0  0  0  0  0  0  0  0  0  0
    5.4493    0.8751   -0.9098 C   0  0  0  0  0  0  0  0  0  0  0  0
    5.0046    2.3443   -0.8224 C   0  0  0  0  0  0  0  0  0  0  0  0
    6.8395    0.9599   -1.5673 C   0  0  0  0  0  0  0  0  0  0  0  0
    5.6178    0.2236    0.3957 C   0  0  0  0  0  0  0  0  0  0  0  0
    4.5451   -0.5745    0.9749 C   0  0  0  0  0  0  0  0  0  0  0  0
   -4.3464    0.9775    0.9395 C   0  0  0  0  0  0  0  0  0  0  0  0
   -5.5818    1.5115    0.2398 C   0  0  0  0  0  0  0  0  0  0  0  0
  1  2  1  0
  2  3  1  0
  3  4  1  0
  4  5  1  0
  5  6  1  0
  6  7  1  6
  6  8  1  0
  8  9  1  0
  9 10  1  0
 10 11  2  0
 10 12  1  0
 12 13  1  0
 13 14  1  0
 14 15  1  6
 14 16  1  0
 16 17  1  0
 17 18  1  0
 18 19  1  0
 19 20  1  0
 19 21  1  0
 19 22  1  0
 22 23  1  0
  5 24  1  0
 24 25  1  0
 25  2  1  0
 23 14  1  0
M  END
>  <zinc_id>  (1) 
ZINC001667676411

>  <smiles>  (1) 
CC1CCN([C@H](C)CNC(=O)NC[C@]2(O)CCCC(C)(C)CC2)CC1

$$$$
