
     RDKit          3D

 25 26  0  0  0  0  0  0  0  0999 V2000
    4.7989   -2.7107    0.9405 C   0  0  0  0  0  0  0  0  0  0  0  0
    5.5834   -1.6615    1.4869 C   0  0  0  0  0  0  0  0  0  0  0  0
    5.0608   -0.1478    1.0141 C   0  0  1  0  0  0  0  0  0  0  0  0
    5.2745   -0.4531   -0.4702 F   0  0  0  0  0  0  0  0  0  0  0  0
    3.4297   -0.4575    1.0412 C   0  0  0  0  0  0  0  0  0  0  0  0
    3.1042   -1.4508    0.1685 N   0  0  0  0  0  0  0  0  0  0  0  0
    3.1669   -1.3409   -1.2489 C   0  0  0  0  0  0  0  0  0  0  0  0
    1.7660   -0.7371   -1.2700 C   0  0  0  0  0  0  0  0  0  0  0  0
    1.9343    0.8269   -0.7146 C   0  0  1  0  0  0  0  0  0  0  0  0
    2.9718    1.2477   -1.9390 C   0  0  0  0  0  0  0  0  0  0  0  0
    0.6642    1.3344   -1.5150 N   0  0  0  0  0  0  0  0  0  0  0  0
   -0.5389    1.3848   -0.7658 C   0  0  0  0  0  0  0  0  0  0  0  0
   -0.4681    1.0245    0.4343 O   0  0  0  0  0  0  0  0  0  0  0  0
   -1.8417    1.8450   -1.3654 C   0  0  0  0  0  0  0  0  0  0  0  0
   -2.8657    1.7844   -0.3170 C   0  0  0  0  0  0  0  0  0  0  0  0
   -3.3122    2.9402    0.3164 C   0  0  0  0  0  0  0  0  0  0  0  0
   -4.2717    2.8739    1.3022 C   0  0  0  0  0  0  0  0  0  0  0  0
   -4.7879    1.6363    1.6563 C   0  0  0  0  0  0  0  0  0  0  0  0
   -4.3492    0.4908    1.0309 C   0  0  0  0  0  0  0  0  0  0  0  0
   -3.3825    0.5669    0.0394 C   0  0  0  0  0  0  0  0  0  0  0  0
   -2.9051   -0.6007   -0.6317 N   0  0  0  0  0  0  0  0  0  0  0  0
   -3.4462   -1.8692   -0.2345 C   0  0  0  0  0  0  0  0  0  0  0  0
   -2.9590   -3.0919   -0.9290 C   0  0  0  0  0  0  0  0  0  0  0  0
   -4.2964   -1.8723    0.6743 O   0  0  0  0  0  0  0  0  0  0  0  0
    1.6701   -1.5624    0.0247 C   0  0  0  0  0  0  0  0  0  0  0  0
  1  2  1  0
  2  3  1  0
  3  4  1  6
  3  5  1  0
  5  6  1  0
  6  7  1  0
  7  8  1  0
  8  9  1  0
  9 10  1  6
  9 11  1  0
 11 12  1  0
 12 13  2  0
 12 14  1  0
 14 15  1  0
 15 16  2  0
 16 17  1  0
 17 18  2  0
 18 19  1  0
 19 20  2  0
 20 21  1  0
 21 22  1  0
 22 23  1  0
 22 24  2  0
  8 25  1  0
 25  6  1  0
 20 15  1  0
M  END
>  <zinc_id>  (1) 
ZINC001485529994

>  <smiles>  (1) 
CC[C@@H](F)CN1CC([C@@H](C)NC(=O)Cc2ccccc2NC(C)=O)C1

$$$$
