
     RDKit          3D

 23 24  0  0  0  0  0  0  0  0999 V2000
    6.1067    2.5185    0.9399 C   0  0  0  0  0  0  0  0  0  0  0  0
    5.8755    1.2811    1.3620 C   0  0  0  0  0  0  0  0  0  0  0  0
    5.6884    0.1377    0.4623 C   0  0  0  0  0  0  0  0  0  0  0  0
    4.4151   -0.6236    0.5682 C   0  0  0  0  0  0  0  0  0  0  0  0
    3.2082    0.4300    0.2494 C   0  0  2  0  0  0  0  0  0  0  0  0
    3.5684    1.4074    1.5199 C   0  0  0  0  0  0  0  0  0  0  0  0
    2.1111   -0.4483    1.0318 N   0  0  0  0  0  0  0  0  0  0  0  0
    2.1836   -1.6615    0.1751 C   0  0  0  0  0  0  0  0  0  0  0  0
    1.6160   -0.7507   -0.8666 C   0  0  0  0  0  0  0  0  0  0  0  0
    0.6504   -1.5506   -1.8955 C   0  0  2  0  0  0  0  0  0  0  0  0
    0.3036   -0.2025   -2.7810 C   0  0  0  0  0  0  0  0  0  0  0  0
   -0.6205   -1.6470   -1.0211 N   0  0  0  0  0  0  0  0  0  0  0  0
   -1.4917   -0.6112   -0.8097 C   0  0  0  0  0  0  0  0  0  0  0  0
   -1.1261    0.4474   -1.4256 O   0  0  0  0  0  0  0  0  0  0  0  0
   -2.7126   -0.6013   -0.0049 C   0  0  0  0  0  0  0  0  0  0  0  0
   -3.1430   -1.7110    0.6667 C   0  0  0  0  0  0  0  0  0  0  0  0
   -4.3026   -1.6392    1.4117 C   0  0  0  0  0  0  0  0  0  0  0  0
   -5.0422   -0.4568    1.4911 C   0  0  0  0  0  0  0  0  0  0  0  0
   -4.5743    0.6351    0.7993 C   0  0  0  0  0  0  0  0  0  0  0  0
   -5.3049    1.8136    0.8732 O   0  0  0  0  0  0  0  0  0  0  0  0
   -4.8254    2.9488    0.1612 C   0  0  0  0  0  0  0  0  0  0  0  0
   -3.4316    0.5272    0.0783 N   0  0  0  0  0  0  0  0  0  0  0  0
    0.8477   -0.2431    0.3273 C   0  0  0  0  0  0  0  0  0  0  0  0
  1  2  2  0
  2  3  1  0
  3  4  1  0
  4  5  1  0
  5  6  1  1
  5  7  1  0
  7  8  1  0
  8  9  1  0
  9 10  1  0
 10 11  1  6
 10 12  1  0
 12 13  1  0
 13 14  2  0
 13 15  1  0
 15 16  2  0
 16 17  1  0
 17 18  2  0
 18 19  1  0
 19 20  1  0
 20 21  1  0
 19 22  2  0
  9 23  1  0
 23  7  1  0
 22 15  1  0
M  END
>  <zinc_id>  (1) 
ZINC001485529924

>  <smiles>  (1) 
C=CCC[C@H](C)N1CC([C@H](C)NC(=O)c2cccc(OC)n2)C1

$$$$
