
     RDKit          3D

 32 35  0  0  0  0  0  0  0  0999 V2000
   -8.4557    1.3898    1.5912 C   0  0  0  0  0  0  0  0  0  0  0  0
   -7.9337    0.3610    0.6633 C   0  0  0  0  0  0  0  0  0  0  0  0
   -8.6567   -0.8082    0.3960 C   0  0  0  0  0  0  0  0  0  0  0  0
   -8.1502   -1.7534   -0.4716 C   0  0  0  0  0  0  0  0  0  0  0  0
   -6.9767   -1.5676   -1.0611 N   0  0  0  0  0  0  0  0  0  0  0  0
   -6.2371   -0.4673   -0.8453 C   0  0  0  0  0  0  0  0  0  0  0  0
   -4.9548   -0.3128   -1.5195 C   0  0  0  0  0  0  0  0  0  0  0  0
   -4.3553   -1.1492   -2.3778 N   0  0  0  0  0  0  0  0  0  0  0  0
   -3.2027   -0.6179   -2.7532 O   0  0  0  0  0  0  0  0  0  0  0  0
   -3.0339    0.5343   -2.1683 C   0  0  0  0  0  0  0  0  0  0  0  0
   -1.8760    1.4206   -2.3364 C   0  0  0  0  0  0  0  0  0  0  0  0
   -0.8411    1.1006   -1.3378 C   0  0  0  0  0  0  0  0  0  0  0  0
    0.3906    1.8664   -1.3373 C   0  0  0  0  0  0  0  0  0  0  0  0
    1.1315    1.8077   -0.0393 C   0  0  0  0  0  0  0  0  0  0  0  0
    1.1601    0.4630    0.4930 N   0  0  0  0  0  0  0  0  0  0  0  0
    2.2177    0.0227    1.3731 C   0  0  0  0  0  0  0  0  0  0  0  0
    2.1699   -1.1585    1.8011 O   0  0  0  0  0  0  0  0  0  0  0  0
    3.2733    0.8011    1.7777 N   0  0  0  0  0  0  0  0  0  0  0  0
    4.3426    0.6734    2.5367 C   0  0  0  0  0  0  0  0  0  0  0  0
    5.5201   -0.3456    2.2354 C   0  0  1  0  0  0  0  0  0  0  0  0
    4.6404   -1.6961    2.3169 C   0  0  0  0  0  0  0  0  0  0  0  0
    5.5146   -0.2855    0.6622 N   0  0  0  0  0  0  0  0  0  0  0  0
    6.4130   -1.3684    0.3259 C   0  0  0  0  0  0  0  0  0  0  0  0
    7.6418   -0.9727   -0.3981 C   0  0  0  0  0  0  0  0  0  0  0  0
    8.5229   -0.1688    0.5584 C   0  0  0  0  0  0  0  0  0  0  0  0
    9.6654    0.4017   -0.2134 C   0  0  0  0  0  0  0  0  0  0  0  0
    7.6177    0.8793    1.1717 C   0  0  0  0  0  0  0  0  0  0  0  0
    6.2765    0.9617    0.4693 C   0  0  0  0  0  0  0  0  0  0  0  0
    0.1439   -0.5125    0.1809 C   0  0  0  0  0  0  0  0  0  0  0  0
   -1.1311    0.1168   -0.3120 C   0  0  0  0  0  0  0  0  0  0  0  0
   -4.1127    0.7339   -1.4018 N   0  0  0  0  0  0  0  0  0  0  0  0
   -6.7244    0.4930    0.0199 C   0  0  0  0  0  0  0  0  0  0  0  0
  1  2  1  0
  2  3  2  0
  3  4  1  0
  4  5  2  0
  5  6  1  0
  6  7  1  0
  7  8  2  0
  8  9  1  0
  9 10  1  0
 10 11  1  0
 11 12  1  0
 12 13  1  0
 13 14  1  0
 14 15  1  0
 15 16  1  0
 16 17  2  0
 16 18  1  0
 18 19  1  0
 19 20  1  0
 20 21  1  6
 20 22  1  0
 22 23  1  0
 23 24  1  0
 24 25  1  0
 25 26  1  0
 25 27  1  0
 27 28  1  0
 15 29  1  0
 29 30  1  0
 10 31  2  0
  6 32  2  0
 32  2  1  0
 31  7  1  0
 30 12  1  0
 28 22  1  0
M  END
>  <zinc_id>  (1) 
ZINC001667676426

>  <smiles>  (1) 
Cc1ccnc(-c2noc(CC3CCN(C(=O)NC[C@@H](C)N4CCC(C)CC4)CC3)n2)c1

$$$$
