
     RDKit          3D

 24 25  0  0  0  0  0  0  0  0999 V2000
   -7.4302   -1.4428   -0.4591 C   0  0  0  0  0  0  0  0  0  0  0  0
   -6.5372   -0.5300   -0.9480 O   0  0  0  0  0  0  0  0  0  0  0  0
   -5.4078   -0.3472   -0.2167 C   0  0  0  0  0  0  0  0  0  0  0  0
   -5.8113    0.2059    1.2586 C   0  0  1  0  0  0  0  0  0  0  0  0
   -6.7023   -1.1002    1.6646 C   0  0  0  0  0  0  0  0  0  0  0  0
   -4.4493   -0.3536    1.9734 C   0  0  0  0  0  0  0  0  0  0  0  0
   -3.3664    0.3461    1.2468 C   0  0  0  0  0  0  0  0  0  0  0  0
   -3.6455    1.1450    0.3292 O   0  0  0  0  0  0  0  0  0  0  0  0
   -2.0107    0.1163    1.5862 N   0  0  0  0  0  0  0  0  0  0  0  0
   -1.0859    0.9982    0.6474 C   0  0  2  0  0  0  0  0  0  0  0  0
   -1.0522   -0.1648   -0.5159 C   0  0  0  0  0  0  0  0  0  0  0  0
    0.2976    0.5971    1.3923 C   0  0  0  0  0  0  0  0  0  0  0  0
    1.2980    1.4105    0.5968 C   0  0  0  0  0  0  0  0  0  0  0  0
    1.0826    0.4024   -0.4079 N   0  0  0  0  0  0  0  0  0  0  0  0
    2.0057    0.1994   -1.4278 C   0  0  0  0  0  0  0  0  0  0  0  0
    3.3376   -0.1693   -0.9435 C   0  0  0  0  0  0  0  0  0  0  0  0
    3.5498   -0.2407    0.4155 C   0  0  0  0  0  0  0  0  0  0  0  0
    4.8387   -0.5986    0.8078 C   0  0  0  0  0  0  0  0  0  0  0  0
    5.8132   -0.8578   -0.0932 N   0  0  0  0  0  0  0  0  0  0  0  0
    5.5698   -0.7781   -1.4256 C   0  0  0  0  0  0  0  0  0  0  0  0
    6.5495   -1.0387   -2.3706 O   0  0  0  0  0  0  0  0  0  0  0  0
    7.8323   -1.3962   -1.9238 C   0  0  0  0  0  0  0  0  0  0  0  0
    4.3172   -0.4296   -1.8813 C   0  0  0  0  0  0  0  0  0  0  0  0
    1.0067   -0.5190    0.6949 C   0  0  0  0  0  0  0  0  0  0  0  0
  1  2  1  0
  2  3  1  0
  3  4  1  0
  4  5  1  1
  4  6  1  0
  6  7  1  0
  7  8  2  0
  7  9  1  0
  9 10  1  0
 10 11  1  6
 10 12  1  0
 12 13  1  0
 13 14  1  0
 14 15  1  0
 15 16  1  0
 16 17  2  0
 17 18  1  0
 18 19  2  0
 19 20  1  0
 20 21  1  0
 21 22  1  0
 20 23  2  0
 14 24  1  0
 24 12  1  0
 23 16  1  0
M  END
>  <zinc_id>  (1) 
ZINC001485529916

>  <smiles>  (1) 
COC[C@@H](C)CC(=O)N[C@H](C)C1CN(Cc2ccnc(OC)c2)C1

$$$$
