
     RDKit          3D

 31 34  0  0  0  0  0  0  0  0999 V2000
    6.5052   -2.7234    0.6613 C   0  0  0  0  0  0  0  0  0  0  0  0
    6.4696   -1.5063   -0.0059 O   0  0  0  0  0  0  0  0  0  0  0  0
    6.9546   -0.2823    0.5132 C   0  0  0  0  0  0  0  0  0  0  0  0
    7.4414   -0.3666    1.6660 O   0  0  0  0  0  0  0  0  0  0  0  0
    6.8841    0.9823   -0.2529 C   0  0  0  0  0  0  0  0  0  0  0  0
    5.9144    2.0582    0.2571 C   0  0  0  0  0  0  0  0  0  0  0  0
    4.8531    1.1286   -0.0953 C   0  0  0  0  0  0  0  0  0  0  0  0
    5.7532    0.7654   -1.2901 C   0  0  0  0  0  0  0  0  0  0  0  0
    3.5137    1.4808   -0.6065 C   0  0  0  0  0  0  0  0  0  0  0  0
    3.0859   -0.0609   -1.0902 C   0  0  2  0  0  0  0  0  0  0  0  0
    1.6756    0.3232   -1.5368 N   0  0  0  0  0  0  0  0  0  0  0  0
    0.5986   -0.4048   -1.0075 C   0  0  0  0  0  0  0  0  0  0  0  0
    0.7962   -1.3519   -0.1781 O   0  0  0  0  0  0  0  0  0  0  0  0
   -0.7730   -0.1814   -1.3222 N   0  0  0  0  0  0  0  0  0  0  0  0
   -1.8153   -1.0209   -0.7023 C   0  0  0  0  0  0  0  0  0  0  0  0
   -3.1605   -0.3842   -1.3433 C   0  0  2  0  0  0  0  0  0  0  0  0
   -2.9605    1.1190   -0.7832 C   0  0  0  0  0  0  0  0  0  0  0  0
   -2.1486    1.1654    0.4282 C   0  0  0  0  0  0  0  0  0  0  0  0
   -2.8092    0.2806    1.4917 C   0  0  0  0  0  0  0  0  0  0  0  0
   -4.0775   -0.0991    0.9730 N   0  0  0  0  0  0  0  0  0  0  0  0
   -5.0165    1.0023    0.8572 C   0  0  0  0  0  0  0  0  0  0  0  0
   -6.2668    0.4551    0.2669 C   0  0  0  0  0  0  0  0  0  0  0  0
   -6.5167   -0.8940    0.4230 C   0  0  0  0  0  0  0  0  0  0  0  0
   -7.6502   -1.5143   -0.0944 C   0  0  0  0  0  0  0  0  0  0  0  0
   -8.5548   -0.7482   -0.7877 C   0  0  0  0  0  0  0  0  0  0  0  0
   -8.3109    0.5923   -0.9434 C   0  0  0  0  0  0  0  0  0  0  0  0
   -7.1731    1.1976   -0.4207 C   0  0  0  0  0  0  0  0  0  0  0  0
   -4.1236   -0.9092   -0.1611 C   0  0  0  0  0  0  0  0  0  0  0  0
    2.6909   -0.5302    0.4066 C   0  0  0  0  0  0  0  0  0  0  0  0
    3.4588    0.2368    1.4000 C   0  0  0  0  0  0  0  0  0  0  0  0
    4.7620    0.1901    0.9102 O   0  0  0  0  0  0  0  0  0  0  0  0
  1  2  1  0
  2  3  1  0
  3  4  2  0
  3  5  1  0
  5  6  1  0
  6  7  1  0
  7  8  1  0
  7  9  1  0
  9 10  1  0
 10 11  1  6
 11 12  1  0
 12 13  2  0
 12 14  1  0
 14 15  1  0
 16 15  1  1
 16 17  1  0
 17 18  1  0
 18 19  1  0
 19 20  1  0
 20 21  1  0
 21 22  1  0
 22 23  2  0
 23 24  1  0
 24 25  2  0
 25 26  1  0
 26 27  2  0
 20 28  1  0
 10 29  1  0
 29 30  1  0
 30 31  1  0
  8  5  1  0
 28 16  1  0
 31  7  1  0
 27 22  1  0
M  END
>  <zinc_id>  (1) 
ZINC001667676419

>  <smiles>  (1) 
COC(=O)C1CC2(C1)C[C@H](NC(=O)NC[C@@H]1CCCN(Cc3ccccc3)C1)CCO2

$$$$
