
     RDKit          3D

 25 27  0  0  0  0  0  0  0  0999 V2000
    3.0881   -3.1065   -0.5136 C   0  0  0  0  0  0  0  0  0  0  0  0
    1.6530   -2.3773   -0.0217 C   0  0  1  0  0  0  0  0  0  0  0  0
    2.0237   -0.9789   -0.6262 N   0  0  0  0  0  0  0  0  0  0  0  0
    3.2564   -0.4245   -0.3327 C   0  0  0  0  0  0  0  0  0  0  0  0
    4.0766   -1.0230    0.4049 O   0  0  0  0  0  0  0  0  0  0  0  0
    3.5929    0.9111   -0.9166 C   0  0  0  0  0  0  0  0  0  0  0  0
    4.9725    1.3267   -0.4814 C   0  0  0  0  0  0  0  0  0  0  0  0
    5.1176    1.4435    1.0167 C   0  0  0  0  0  0  0  0  0  0  0  0
    4.1928    2.4586    1.6998 C   0  0  0  0  0  0  0  0  0  0  0  0
    6.5921    1.7252    1.3994 C   0  0  0  0  0  0  0  0  0  0  0  0
    5.9106    0.4893    1.8091 C   0  0  0  0  0  0  0  0  0  0  0  0
    0.8165   -2.9549   -1.2969 C   0  0  0  0  0  0  0  0  0  0  0  0
   -0.5904   -2.4251   -1.0956 C   0  0  0  0  0  0  0  0  0  0  0  0
   -0.0889   -1.1352   -1.5964 N   0  0  0  0  0  0  0  0  0  0  0  0
   -1.0623   -0.4199   -2.4008 C   0  0  0  0  0  0  0  0  0  0  0  0
   -2.1707    0.0018   -1.5198 C   0  0  0  0  0  0  0  0  0  0  0  0
   -3.0838    0.3247   -0.8042 C   0  0  0  0  0  0  0  0  0  0  0  0
   -4.1933    0.6913    0.0432 C   0  0  0  0  0  0  0  0  0  0  0  0
   -5.2351    1.4591   -0.4365 C   0  0  0  0  0  0  0  0  0  0  0  0
   -6.2965    1.8130    0.3712 C   0  0  0  0  0  0  0  0  0  0  0  0
   -6.3742    1.4219    1.6914 C   0  0  0  0  0  0  0  0  0  0  0  0
   -7.4330    1.7811    2.4727 F   0  0  0  0  0  0  0  0  0  0  0  0
   -5.3351    0.6543    2.1762 C   0  0  0  0  0  0  0  0  0  0  0  0
   -4.2620    0.2949    1.3640 C   0  0  0  0  0  0  0  0  0  0  0  0
    0.8327   -1.9512   -2.4062 C   0  0  0  0  0  0  0  0  0  0  0  0
  2  1  1  6
  2  3  1  0
  3  4  1  0
  4  5  2  0
  4  6  1  0
  6  7  1  0
  7  8  1  0
  8  9  1  0
  8 10  1  0
 10 11  1  0
  2 12  1  0
 12 13  1  0
 13 14  1  0
 14 15  1  0
 15 16  1  0
 16 17  3  0
 17 18  1  0
 18 19  2  0
 19 20  1  0
 20 21  2  0
 21 22  1  0
 21 23  1  0
 23 24  2  0
 14 25  1  0
 11  8  1  0
 25 12  1  0
 24 18  1  0
M  END
>  <zinc_id>  (1) 
ZINC001485529993

>  <smiles>  (1) 
C[C@@H](NC(=O)CCC1(C)CC1)C1CN(CC#Cc2ccc(F)cc2)C1

$$$$
