
     RDKit          3D

 33 36  0  0  0  0  0  0  0  0999 V2000
   -7.4960    1.0421   -1.4332 C   0  0  0  0  0  0  0  0  0  0  0  0
   -6.7481    2.0766   -0.6104 C   0  0  0  0  0  0  0  0  0  0  0  0
   -7.5688    2.6321    0.5087 C   0  0  0  0  0  0  0  0  0  0  0  0
   -6.2634    3.2012   -1.5339 C   0  0  0  0  0  0  0  0  0  0  0  0
   -5.5754    1.4497   -0.1183 O   0  0  0  0  0  0  0  0  0  0  0  0
   -5.6163    0.3321    0.6979 C   0  0  0  0  0  0  0  0  0  0  0  0
   -6.7893   -0.0775    0.9635 O   0  0  0  0  0  0  0  0  0  0  0  0
   -4.4871   -0.3275    1.2127 N   0  0  0  0  0  0  0  0  0  0  0  0
   -4.4795   -1.4227    2.0138 C   0  0  0  0  0  0  0  0  0  0  0  0
   -3.4045   -2.1889    1.3796 C   0  0  0  0  0  0  0  0  0  0  0  0
   -2.1847   -1.1387    1.2892 C   0  0  2  0  0  0  0  0  0  0  0  0
   -3.1022    0.2130    0.8544 C   0  0  1  0  0  0  0  0  0  0  0  0
   -3.2117    0.0627   -0.7451 C   0  0  0  0  0  0  0  0  0  0  0  0
   -3.6565   -1.2948   -1.1285 C   0  0  0  0  0  0  0  0  0  0  0  0
   -2.3684   -2.1408   -1.1039 C   0  0  0  0  0  0  0  0  0  0  0  0
   -1.6189   -1.6322   -0.0380 N   0  0  0  0  0  0  0  0  0  0  0  0
   -0.1757   -1.5114   -0.0717 C   0  0  0  0  0  0  0  0  0  0  0  0
    0.4640   -1.0540    0.8946 O   0  0  0  0  0  0  0  0  0  0  0  0
    0.5137   -1.9161   -1.2108 N   0  0  0  0  0  0  0  0  0  0  0  0
    1.8584   -1.9195   -1.5339 C   0  0  0  0  0  0  0  0  0  0  0  0
    2.5045   -0.4507   -1.5369 C   0  0  2  0  0  0  0  0  0  0  0  0
    3.9908   -0.9957   -1.9967 C   0  0  0  0  0  0  0  0  0  0  0  0
    4.4296   -1.9986   -0.9817 C   0  0  0  0  0  0  0  0  0  0  0  0
    5.0544   -1.1870    0.1658 C   0  0  0  0  0  0  0  0  0  0  0  0
    4.1580   -0.0208    0.2843 N   0  0  0  0  0  0  0  0  0  0  0  0
    4.7043    1.0212   -0.5422 C   0  0  0  0  0  0  0  0  0  0  0  0
    6.0678    1.3156   -0.0198 C   0  0  0  0  0  0  0  0  0  0  0  0
    6.8627    2.2901   -0.6163 C   0  0  0  0  0  0  0  0  0  0  0  0
    8.1285    2.5857   -0.1564 C   0  0  0  0  0  0  0  0  0  0  0  0
    8.6366    1.9038    0.9267 C   0  0  0  0  0  0  0  0  0  0  0  0
    7.8877    0.9373    1.5430 C   0  0  0  0  0  0  0  0  0  0  0  0
    6.6159    0.6567    1.0624 C   0  0  0  0  0  0  0  0  0  0  0  0
    2.8696   -0.4431    0.0327 C   0  0  0  0  0  0  0  0  0  0  0  0
  1  2  1  0
  2  3  1  0
  2  4  1  0
  2  5  1  0
  5  6  1  0
  6  7  2  0
  6  8  1  0
  8  9  1  0
  9 10  1  0
 11 10  1  6
 11 12  1  0
 12 13  1  6
 13 14  1  0
 14 15  1  0
 15 16  1  0
 16 17  1  0
 17 18  2  0
 17 19  1  0
 19 20  1  0
 21 20  1  1
 21 22  1  0
 22 23  1  0
 23 24  1  0
 24 25  1  0
 25 26  1  0
 26 27  1  0
 27 28  2  0
 28 29  1  0
 29 30  2  0
 30 31  1  0
 31 32  2  0
 25 33  1  0
 12  8  1  0
 33 21  1  0
 16 11  1  0
 32 27  1  0
M  END
>  <zinc_id>  (1) 
ZINC001667676408

>  <smiles>  (1) 
CC(C)(C)OC(=O)N1CC[C@@H]2[C@H]1CCCN2C(=O)NC[C@@H]1CCCN(Cc2ccccc2)C1

$$$$
