
     RDKit          3D

 25 27  0  0  0  0  0  0  0  0999 V2000
    5.3070    2.9667    1.4983 C   0  0  0  0  0  0  0  0  0  0  0  0
    4.4546    2.4450    0.6084 C   0  0  0  0  0  0  0  0  0  0  0  0
    4.8920    1.5046   -0.4521 C   0  0  0  0  0  0  0  0  0  0  0  0
    4.2217    0.2343   -0.3588 N   0  0  0  0  0  0  0  0  0  0  0  0
    4.6846   -0.9090    0.4112 C   0  0  0  0  0  0  0  0  0  0  0  0
    3.4663   -1.7718    0.5096 C   0  0  0  0  0  0  0  0  0  0  0  0
    3.0395   -1.6786   -1.0699 C   0  0  1  0  0  0  0  0  0  0  0  0
    1.5234   -1.9245   -0.8450 N   0  0  0  0  0  0  0  0  0  0  0  0
    1.2357   -3.2033   -0.3020 C   0  0  0  0  0  0  0  0  0  0  0  0
    0.3634   -2.5503    0.7634 C   0  0  0  0  0  0  0  0  0  0  0  0
   -1.1587   -2.7254    0.1878 C   0  0  2  0  0  0  0  0  0  0  0  0
   -0.9327   -1.9009   -1.1899 C   0  0  0  0  0  0  0  0  0  0  0  0
   -1.7278   -1.5348    0.9947 N   0  0  0  0  0  0  0  0  0  0  0  0
   -2.5969   -0.6033    0.4211 C   0  0  0  0  0  0  0  0  0  0  0  0
   -2.9294   -0.7263   -0.7851 O   0  0  0  0  0  0  0  0  0  0  0  0
   -3.1367    0.5268    1.2074 C   0  0  0  0  0  0  0  0  0  0  0  0
   -4.0773    1.3450    0.4853 C   0  0  0  0  0  0  0  0  0  0  0  0
   -5.4341    1.3622    0.6904 N   0  0  0  0  0  0  0  0  0  0  0  0
   -5.9143    2.2511   -0.1611 O   0  0  0  0  0  0  0  0  0  0  0  0
   -5.0290    2.7997   -0.8815 N   0  0  0  0  0  0  0  0  0  0  0  0
   -3.8391    2.2481   -0.4972 C   0  0  0  0  0  0  0  0  0  0  0  0
   -2.5611    2.6479   -1.1355 C   0  0  0  0  0  0  0  0  0  0  0  0
    1.0344   -1.3394    0.3363 C   0  0  0  0  0  0  0  0  0  0  0  0
    3.0143   -0.0817   -1.0027 C   0  0  0  0  0  0  0  0  0  0  0  0
    2.1001    0.6182   -1.4425 O   0  0  0  0  0  0  0  0  0  0  0  0
  1  2  2  0
  2  3  1  0
  3  4  1  0
  4  5  1  0
  5  6  1  0
  6  7  1  0
  7  8  1  1
  8  9  1  0
  9 10  1  0
 10 11  1  0
 11 12  1  6
 11 13  1  0
 13 14  1  0
 14 15  2  0
 14 16  1  0
 16 17  1  0
 17 18  2  0
 18 19  1  0
 19 20  1  0
 20 21  2  0
 21 22  1  0
 10 23  1  0
  7 24  1  0
 24 25  2  0
 24  4  1  0
 23  8  1  0
 21 17  1  0
M  END
>  <zinc_id>  (1) 
ZINC001485529931

>  <smiles>  (1) 
C=CCN1CC[C@@H](N2CC([C@H](C)NC(=O)Cc3nonc3C)C2)C1=O

$$$$
