
     RDKit          3D

 23 25  0  0  0  0  0  0  0  0999 V2000
    1.3300   -2.7972    0.7566 C   0  0  0  0  0  0  0  0  0  0  0  0
    1.6966   -1.6354   -0.3322 C   0  0  1  0  0  0  0  0  0  0  0  0
    0.2680   -1.6396   -0.9369 N   0  0  0  0  0  0  0  0  0  0  0  0
   -0.8446   -1.2735   -0.2468 C   0  0  0  0  0  0  0  0  0  0  0  0
   -0.7214   -0.9039    0.9631 O   0  0  0  0  0  0  0  0  0  0  0  0
   -2.1666   -1.3168   -0.9284 C   0  0  0  0  0  0  0  0  0  0  0  0
   -3.2358   -0.8009    0.1731 C   0  0  2  0  0  0  0  0  0  0  0  0
   -4.5084   -0.9663   -0.8467 C   0  0  0  0  0  0  0  0  0  0  0  0
   -5.6741   -0.8979    0.1136 C   0  0  0  0  0  0  0  0  0  0  0  0
   -5.7668    0.4538    0.7847 C   0  0  0  0  0  0  0  0  0  0  0  0
   -4.5563    1.5832    0.1469 S   0  0  0  0  0  0  0  0  0  0  0  0
   -4.2964    2.6355    1.1863 O   0  0  0  0  0  0  0  0  0  0  0  0
   -5.0987    2.2105   -1.1106 O   0  0  0  0  0  0  0  0  0  0  0  0
   -3.0211    0.7686   -0.1988 C   0  0  0  0  0  0  0  0  0  0  0  0
    1.4792   -0.3861    0.6957 C   0  0  0  0  0  0  0  0  0  0  0  0
    2.4633   -0.5557    1.8673 C   0  0  0  0  0  0  0  0  0  0  0  0
    3.4356   -0.3651    0.8801 N   0  0  0  0  0  0  0  0  0  0  0  0
    4.7728   -0.3812    1.0024 C   0  0  0  0  0  0  0  0  0  0  0  0
    5.4406   -0.1295   -0.3528 C   0  0  0  0  0  0  0  0  0  0  0  0
    4.9652    1.2294   -0.8123 C   0  0  0  0  0  0  0  0  0  0  0  0
    5.2638    2.4464    0.0451 C   0  0  0  0  0  0  0  0  0  0  0  0
    6.1629    2.1642   -1.1682 C   0  0  0  0  0  0  0  0  0  0  0  0
    2.6120    0.5576    0.2228 C   0  0  0  0  0  0  0  0  0  0  0  0
  2  1  1  1
  2  3  1  0
  3  4  1  0
  4  5  2  0
  4  6  1  0
  7  6  1  6
  7  8  1  0
  8  9  1  0
  9 10  1  0
 10 11  1  0
 11 12  2  0
 11 13  2  0
 11 14  1  0
  2 15  1  0
 15 16  1  0
 16 17  1  0
 17 18  1  0
 18 19  1  0
 19 20  1  0
 20 21  1  0
 21 22  1  0
 17 23  1  0
 14  7  1  0
 23 15  1  0
 22 20  1  0
M  END
>  <zinc_id>  (1) 
ZINC001485529979

>  <smiles>  (1) 
C[C@@H](NC(=O)C[C@@H]1CCCS(=O)(=O)C1)C1CN(CCC2CC2)C1

$$$$
