
     RDKit          3D

 26 28  0  0  0  0  0  0  0  0999 V2000
    8.1534   -0.4759    0.9371 C   0  0  0  0  0  0  0  0  0  0  0  0
    7.3196   -0.6118    0.0712 C   0  0  0  0  0  0  0  0  0  0  0  0
    6.2506   -0.7983   -1.0898 C   0  0  1  0  0  0  0  0  0  0  0  0
    5.2590   -1.7574   -0.1785 C   0  0  0  0  0  0  0  0  0  0  0  0
    3.8677   -1.2709   -0.4068 C   0  0  0  0  0  0  0  0  0  0  0  0
    3.5813   -0.1419    0.7750 C   0  0  2  0  0  0  0  0  0  0  0  0
    2.9266    0.8809   -0.2452 N   0  0  0  0  0  0  0  0  0  0  0  0
    1.5767    1.2402    0.1100 C   0  0  0  0  0  0  0  0  0  0  0  0
    1.0746    0.7447    1.1297 O   0  0  0  0  0  0  0  0  0  0  0  0
    0.7784    2.1110   -0.6090 N   0  0  0  0  0  0  0  0  0  0  0  0
   -0.4413    2.6547   -0.6367 C   0  0  0  0  0  0  0  0  0  0  0  0
   -1.7145    1.7150   -0.8477 C   0  0  1  0  0  0  0  0  0  0  0  0
   -1.2506    1.1252   -2.3327 C   0  0  0  0  0  0  0  0  0  0  0  0
   -1.8208   -0.2633   -2.2872 C   0  0  0  0  0  0  0  0  0  0  0  0
   -2.9443   -0.4180   -1.2852 C   0  0  0  0  0  0  0  0  0  0  0  0
   -2.4566   -0.3159    0.0922 N   0  0  0  0  0  0  0  0  0  0  0  0
   -3.2986    0.6218    0.8490 C   0  0  0  0  0  0  0  0  0  0  0  0
   -4.7078    0.1781    0.8925 C   0  0  0  0  0  0  0  0  0  0  0  0
   -5.6487    0.4846   -0.0692 C   0  0  0  0  0  0  0  0  0  0  0  0
   -6.9535    0.0177    0.0638 C   0  0  0  0  0  0  0  0  0  0  0  0
   -7.3576   -0.7506    1.1308 C   0  0  0  0  0  0  0  0  0  0  0  0
   -6.4183   -1.0603    2.0972 C   0  0  0  0  0  0  0  0  0  0  0  0
   -5.1142   -0.5839    1.9483 C   0  0  0  0  0  0  0  0  0  0  0  0
   -1.1879    0.4118   -0.0397 C   0  0  0  0  0  0  0  0  0  0  0  0
    5.0721    0.5720    0.6731 C   0  0  0  0  0  0  0  0  0  0  0  0
    5.4548    0.6086   -0.7424 C   0  0  0  0  0  0  0  0  0  0  0  0
  1  2  3  0
  3  2  1  1
  3  4  1  0
  4  5  1  0
  5  6  1  0
  6  7  1  6
  7  8  1  0
  8  9  2  0
  8 10  1  0
 10 11  1  0
 12 11  1  1
 12 13  1  0
 13 14  1  0
 14 15  1  0
 15 16  1  0
 16 17  1  0
 17 18  1  0
 18 19  2  0
 19 20  1  0
 20 21  2  0
 21 22  1  0
 22 23  2  0
 16 24  1  0
  6 25  1  0
 25 26  1  0
 26  3  1  0
 24 12  1  0
 23 18  1  0
M  END
>  <zinc_id>  (1) 
ZINC001667676402

>  <smiles>  (1) 
C#C[C@@H]1CC[C@@H](NC(=O)NC[C@H]2CCCN(Cc3ccccc3)C2)CC1

$$$$
