
     RDKit          3D

 23 25  0  0  0  0  0  0  0  0999 V2000
    1.6753   -3.3672    1.5528 C   0  0  0  0  0  0  0  0  0  0  0  0
    0.6645   -2.7405    0.4063 C   0  0  1  0  0  0  0  0  0  0  0  0
    0.0970   -1.6189    1.3582 N   0  0  0  0  0  0  0  0  0  0  0  0
   -1.0974   -1.0831    0.7897 C   0  0  0  0  0  0  0  0  0  0  0  0
   -1.4883   -1.5501   -0.2992 O   0  0  0  0  0  0  0  0  0  0  0  0
   -1.8838   -0.0103    1.4285 C   0  0  0  0  0  0  0  0  0  0  0  0
   -3.1140    0.1999    0.3804 C   0  0  1  0  0  0  0  0  0  0  0  0
   -3.8212    1.4028    1.2816 C   0  0  0  0  0  0  0  0  0  0  0  0
   -5.1511    1.5182    0.5760 C   0  0  0  0  0  0  0  0  0  0  0  0
   -5.0942    1.4541   -0.9054 C   0  0  0  0  0  0  0  0  0  0  0  0
   -3.5550    1.8499   -1.6384 S   0  0  0  0  0  0  0  0  0  0  0  0
   -3.3963    3.3144   -1.8554 O   0  0  0  0  0  0  0  0  0  0  0  0
   -3.3432    1.1156   -2.9385 O   0  0  0  0  0  0  0  0  0  0  0  0
   -2.2735    1.2917   -0.5384 C   0  0  0  0  0  0  0  0  0  0  0  0
    1.7620   -1.7765   -0.3276 C   0  0  0  0  0  0  0  0  0  0  0  0
    2.3681   -0.7831    0.5413 C   0  0  0  0  0  0  0  0  0  0  0  0
    3.6140   -1.5742    0.5123 N   0  0  0  0  0  0  0  0  0  0  0  0
    4.6673   -0.9277   -0.2627 C   0  0  0  0  0  0  0  0  0  0  0  0
    5.1610    0.3338    0.4154 C   0  0  0  0  0  0  0  0  0  0  0  0
    3.9308    1.2403    0.5204 C   0  0  0  0  0  0  0  0  0  0  0  0
    3.2473    1.6454   -0.7516 C   0  0  0  0  0  0  0  0  0  0  0  0
    4.0156    2.6601    0.1170 C   0  0  0  0  0  0  0  0  0  0  0  0
    3.0154   -2.5946   -0.3624 C   0  0  0  0  0  0  0  0  0  0  0  0
  2  1  1  1
  2  3  1  0
  3  4  1  0
  4  5  2  0
  4  6  1  0
  7  6  1  1
  7  8  1  0
  8  9  1  0
  9 10  1  0
 10 11  1  0
 11 12  2  0
 11 13  2  0
 11 14  1  0
  2 15  1  0
 15 16  1  0
 16 17  1  0
 17 18  1  0
 18 19  1  0
 19 20  1  0
 20 21  1  0
 21 22  1  0
 17 23  1  0
 14  7  1  0
 23 15  1  0
 22 20  1  0
M  END
>  <zinc_id>  (1) 
ZINC001485529981

>  <smiles>  (1) 
C[C@@H](NC(=O)C[C@H]1CCCS(=O)(=O)C1)C1CN(CCC2CC2)C1

$$$$
