
     RDKit          3D

 30 33  0  0  0  0  0  0  0  0999 V2000
    4.5419   -2.2998   -0.7128 C   0  0  0  0  0  0  0  0  0  0  0  0
    3.9730   -1.0182   -0.1812 C   0  0  2  0  0  0  0  0  0  0  0  0
    5.0118    0.0316   -0.1072 C   0  0  0  0  0  0  0  0  0  0  0  0
    4.7463    1.3414    0.1099 C   0  0  0  0  0  0  0  0  0  0  0  0
    5.7701    2.2892    0.2069 C   0  0  0  0  0  0  0  0  0  0  0  0
    7.0848    1.8661    0.0781 C   0  0  0  0  0  0  0  0  0  0  0  0
    7.3924    0.5438   -0.1433 C   0  0  0  0  0  0  0  0  0  0  0  0
    8.6837    0.0952   -0.2805 F   0  0  0  0  0  0  0  0  0  0  0  0
    6.3425   -0.3338   -0.2300 C   0  0  0  0  0  0  0  0  0  0  0  0
    3.5359   -1.3613    1.2644 C   0  0  0  0  0  0  0  0  0  0  0  0
    2.1570   -1.8718    1.0219 C   0  0  0  0  0  0  0  0  0  0  0  0
    1.6505   -0.8271    0.1153 N   0  0  0  0  0  0  0  0  0  0  0  0
    0.4399   -0.1745    0.3137 C   0  0  0  0  0  0  0  0  0  0  0  0
   -0.1293   -0.4320    1.4319 O   0  0  0  0  0  0  0  0  0  0  0  0
   -0.1981    0.7421   -0.6099 N   0  0  0  0  0  0  0  0  0  0  0  0
   -1.3909    1.3314   -0.2978 C   0  0  0  0  0  0  0  0  0  0  0  0
   -2.7104    0.5980   -0.1025 C   0  0  2  0  0  0  0  0  0  0  0  0
   -2.4819   -0.4256    1.0253 C   0  0  0  0  0  0  0  0  0  0  0  0
   -2.9906   -1.7492    0.9701 C   0  0  0  0  0  0  0  0  0  0  0  0
   -3.0532   -2.3454   -0.4094 C   0  0  0  0  0  0  0  0  0  0  0  0
   -3.8682   -1.2667   -1.1114 N   0  0  0  0  0  0  0  0  0  0  0  0
   -4.7540   -0.9016   -0.1261 C   0  0  0  0  0  0  0  0  0  0  0  0
   -5.7032    0.1160   -0.0687 C   0  0  0  0  0  0  0  0  0  0  0  0
   -6.8476    0.1898   -0.8017 C   0  0  0  0  0  0  0  0  0  0  0  0
   -7.7616    1.2358   -0.6514 C   0  0  0  0  0  0  0  0  0  0  0  0
   -7.5119    2.2331    0.2651 C   0  0  0  0  0  0  0  0  0  0  0  0
   -6.3470    2.1931    1.0351 C   0  0  0  0  0  0  0  0  0  0  0  0
   -5.4889    1.1616    0.8545 C   0  0  0  0  0  0  0  0  0  0  0  0
   -2.7835   -0.3150   -1.3992 C   0  0  0  0  0  0  0  0  0  0  0  0
    2.6904   -0.6461   -0.8375 C   0  0  0  0  0  0  0  0  0  0  0  0
  2  1  1  6
  2  3  1  0
  3  4  2  0
  4  5  1  0
  5  6  2  0
  6  7  1  0
  7  8  1  0
  7  9  2  0
  2 10  1  0
 10 11  1  0
 11 12  1  0
 12 13  1  0
 13 14  2  0
 13 15  1  0
 15 16  1  0
 17 16  1  6
 17 18  1  0
 18 19  1  0
 19 20  1  0
 20 21  1  0
 21 22  1  0
 22 23  1  0
 23 24  2  0
 24 25  1  0
 25 26  2  0
 26 27  1  0
 27 28  2  0
 21 29  1  0
 12 30  1  0
 30  2  1  0
  9  3  1  0
 29 17  1  0
 28 23  1  0
M  END
>  <zinc_id>  (1) 
ZINC001667676430

>  <smiles>  (1) 
C[C@]1(c2cccc(F)c2)CCN(C(=O)NC[C@@H]2CCCN(Cc3ccccc3)C2)C1

$$$$
