
     RDKit          3D

 27 29  0  0  0  0  0  0  0  0999 V2000
   -3.7255   -0.5476    2.3298 C   0  0  0  0  0  0  0  0  0  0  0  0
   -2.8087    0.1799    2.0898 C   0  0  0  0  0  0  0  0  0  0  0  0
   -1.7038    1.0551    1.8334 C   0  0  0  0  0  0  0  0  0  0  0  0
   -0.8715    0.6371    0.7629 N   0  0  0  0  0  0  0  0  0  0  0  0
    0.2239   -0.2230    0.9396 C   0  0  0  0  0  0  0  0  0  0  0  0
    0.4798   -0.6543    2.0935 O   0  0  0  0  0  0  0  0  0  0  0  0
    1.0849   -0.6539   -0.1022 N   0  0  0  0  0  0  0  0  0  0  0  0
    2.1996   -1.5480    0.1726 C   0  0  0  0  0  0  0  0  0  0  0  0
    2.9075   -1.7680   -1.3024 C   0  0  2  0  0  0  0  0  0  0  0  0
    4.0490   -2.7504   -0.6896 C   0  0  0  0  0  0  0  0  0  0  0  0
    3.7453   -0.4733   -1.2476 N   0  0  0  0  0  0  0  0  0  0  0  0
    2.9745    0.6649   -1.1946 C   0  0  0  0  0  0  0  0  0  0  0  0
    3.1925    1.5322   -0.0091 C   0  0  0  0  0  0  0  0  0  0  0  0
    4.6087    1.6130    0.4776 C   0  0  0  0  0  0  0  0  0  0  0  0
    4.5266    2.0086    1.9606 C   0  0  0  0  0  0  0  0  0  0  0  0
    5.3427    0.3105    0.4266 C   0  0  0  0  0  0  0  0  0  0  0  0
    4.9896   -0.5870   -0.7104 C   0  0  0  0  0  0  0  0  0  0  0  0
   -1.2172    1.1995   -0.6106 C   0  0  1  0  0  0  0  0  0  0  0  0
   -0.8350   -0.0922   -1.5006 C   0  0  0  0  0  0  0  0  0  0  0  0
   -1.4601   -1.3131   -1.0287 C   0  0  0  0  0  0  0  0  0  0  0  0
   -2.8985   -1.3616   -1.5011 C   0  0  0  0  0  0  0  0  0  0  0  0
   -3.4589   -0.0548   -0.9818 C   0  0  0  0  0  0  0  0  0  0  0  0
   -4.8343   -0.0509   -0.9192 C   0  0  0  0  0  0  0  0  0  0  0  0
   -5.5028    1.0428   -0.4690 C   0  0  0  0  0  0  0  0  0  0  0  0
   -4.8165    2.1591   -0.0699 C   0  0  0  0  0  0  0  0  0  0  0  0
   -3.4234    2.1298   -0.1432 C   0  0  0  0  0  0  0  0  0  0  0  0
   -2.7683    1.0022   -0.6062 C   0  0  0  0  0  0  0  0  0  0  0  0
  1  2  3  0
  2  3  1  0
  3  4  1  0
  4  5  1  0
  5  6  2  0
  5  7  1  0
  7  8  1  0
  8  9  1  0
  9 10  1  1
  9 11  1  0
 11 12  1  0
 12 13  1  0
 13 14  1  0
 14 15  1  0
 14 16  1  0
 16 17  1  0
 18  4  1  1
 18 19  1  0
 19 20  1  0
 20 21  1  0
 21 22  1  0
 22 23  2  0
 23 24  1  0
 24 25  2  0
 25 26  1  0
 26 27  2  0
 17 11  1  0
 27 18  1  0
 27 22  1  0
M  END
>  <zinc_id>  (1) 
ZINC001667676387

>  <smiles>  (1) 
C#CCN(C(=O)NC[C@H](C)N1CCC(C)CC1)[C@H]1CCCc2ccccc21

$$$$
