
     RDKit          3D

 23 24  0  0  0  0  0  0  0  0999 V2000
    2.2441    3.0750    0.4063 C   0  0  0  0  0  0  0  0  0  0  0  0
    3.2416    2.4148   -0.1431 C   0  0  0  0  0  0  0  0  0  0  0  0
    3.2818    0.9917   -0.4463 C   0  0  0  0  0  0  0  0  0  0  0  0
    4.3866    0.2403    0.2525 C   0  0  0  0  0  0  0  0  0  0  0  0
    4.1421   -1.2755   -0.2965 C   0  0  1  0  0  0  0  0  0  0  0  0
    5.4113   -1.8854    0.5634 C   0  0  0  0  0  0  0  0  0  0  0  0
    3.1145   -1.6241    0.8366 N   0  0  0  0  0  0  0  0  0  0  0  0
    2.0176   -0.7045    0.6386 C   0  0  0  0  0  0  0  0  0  0  0  0
    1.1067   -1.8648    0.2483 C   0  0  0  0  0  0  0  0  0  0  0  0
    0.7082   -1.6271   -1.3146 C   0  0  1  0  0  0  0  0  0  0  0  0
   -0.2149   -2.9621   -1.4130 C   0  0  0  0  0  0  0  0  0  0  0  0
   -0.4525   -0.6467   -1.0138 N   0  0  0  0  0  0  0  0  0  0  0  0
   -1.5407   -1.0078   -0.2434 C   0  0  0  0  0  0  0  0  0  0  0  0
   -1.5823   -2.1707    0.2226 O   0  0  0  0  0  0  0  0  0  0  0  0
   -2.6120   -0.0493    0.0174 C   0  0  0  0  0  0  0  0  0  0  0  0
   -3.6728   -0.4765    0.7854 C   0  0  0  0  0  0  0  0  0  0  0  0
   -4.7415    0.3359    1.0998 C   0  0  0  0  0  0  0  0  0  0  0  0
   -4.7140    1.6240    0.6076 C   0  0  0  0  0  0  0  0  0  0  0  0
   -3.6285    2.0015   -0.1564 C   0  0  0  0  0  0  0  0  0  0  0  0
   -3.6497    3.3182   -0.6307 O   0  0  0  0  0  0  0  0  0  0  0  0
   -2.5927    3.8187   -1.4236 C   0  0  0  0  0  0  0  0  0  0  0  0
   -2.6027    1.1996   -0.4499 N   0  0  0  0  0  0  0  0  0  0  0  0
    2.3500   -2.7251    0.2293 C   0  0  0  0  0  0  0  0  0  0  0  0
  1  2  2  0
  2  3  1  0
  3  4  1  0
  4  5  1  0
  5  6  1  1
  5  7  1  0
  7  8  1  0
  8  9  1  0
  9 10  1  0
 10 11  1  1
 10 12  1  0
 12 13  1  0
 13 14  2  0
 13 15  1  0
 15 16  2  0
 16 17  1  0
 17 18  2  0
 18 19  1  0
 19 20  1  0
 20 21  1  0
 19 22  2  0
  9 23  1  0
 23  7  1  0
 22 15  1  0
M  END
>  <zinc_id>  (1) 
ZINC001485529927

>  <smiles>  (1) 
C=CCC[C@@H](C)N1CC([C@@H](C)NC(=O)c2cccc(OC)n2)C1

$$$$
