
     RDKit          3D

 23 24  0  0  0  0  0  0  0  0999 V2000
    4.2065    0.0384    1.7733 C   0  0  0  0  0  0  0  0  0  0  0  0
    4.7427   -1.2721    1.3095 C   0  0  0  0  0  0  0  0  0  0  0  0
    4.1968   -1.6437   -0.0364 C   0  0  0  0  0  0  0  0  0  0  0  0
    4.6501   -0.4604   -1.0759 C   0  0  1  0  0  0  0  0  0  0  0  0
    3.9615   -1.0839   -2.3993 C   0  0  0  0  0  0  0  0  0  0  0  0
    2.5323   -1.2601   -2.2874 C   0  0  0  0  0  0  0  0  0  0  0  0
    3.5095    0.5771   -0.7113 C   0  0  0  0  0  0  0  0  0  0  0  0
    3.9703    1.7173   -0.3998 O   0  0  0  0  0  0  0  0  0  0  0  0
    2.1829    0.2653   -0.7340 N   0  0  0  0  0  0  0  0  0  0  0  0
    1.2737    1.4859   -0.3278 C   0  0  1  0  0  0  0  0  0  0  0  0
    1.7997    2.4377   -1.5733 C   0  0  0  0  0  0  0  0  0  0  0  0
   -0.0135    0.9139   -1.1949 C   0  0  0  0  0  0  0  0  0  0  0  0
   -0.2650   -0.4271   -0.5358 C   0  0  0  0  0  0  0  0  0  0  0  0
   -1.4940    0.1438    0.0154 N   0  0  0  0  0  0  0  0  0  0  0  0
   -1.5274    0.1819    1.4483 C   0  0  0  0  0  0  0  0  0  0  0  0
   -2.8220    0.7826    1.9021 C   0  0  0  0  0  0  0  0  0  0  0  0
   -3.9274   -0.1026    1.3614 C   0  0  0  0  0  0  0  0  0  0  0  0
   -4.3916   -1.1629    2.1018 C   0  0  0  0  0  0  0  0  0  0  0  0
   -5.3915   -1.9937    1.6556 C   0  0  0  0  0  0  0  0  0  0  0  0
   -5.9673   -1.7685    0.4105 C   0  0  0  0  0  0  0  0  0  0  0  0
   -5.4888   -0.6980   -0.3212 C   0  0  0  0  0  0  0  0  0  0  0  0
   -4.4882    0.1276    0.1332 C   0  0  0  0  0  0  0  0  0  0  0  0
   -1.2494    1.4725   -0.5139 C   0  0  0  0  0  0  0  0  0  0  0  0
  1  2  1  0
  2  3  1  0
  4  3  1  1
  4  5  1  0
  5  6  1  0
  4  7  1  0
  7  8  2  0
  7  9  1  0
  9 10  1  0
 10 11  1  6
 10 12  1  0
 12 13  1  0
 13 14  1  0
 14 15  1  0
 15 16  1  0
 16 17  1  0
 17 18  2  0
 18 19  1  0
 19 20  2  0
 20 21  1  0
 21 22  2  0
 14 23  1  0
 23 12  1  0
 22 17  1  0
M  END
>  <zinc_id>  (1) 
ZINC001485529937

>  <smiles>  (1) 
CCC[C@@H](CC)C(=O)N[C@@H](C)C1CN(CCc2ccccc2)C1

$$$$
