
     RDKit          3D

 29 31  0  0  0  0  0  0  0  0999 V2000
    4.1389    2.8718   -0.2379 C   0  0  0  0  0  0  0  0  0  0  0  0
    4.4497    1.7423    1.1228 S   0  0  0  0  0  0  0  0  0  0  0  0
    5.9379    1.6379    1.2675 O   0  0  0  0  0  0  0  0  0  0  0  0
    3.7986    2.2979    2.3546 O   0  0  0  0  0  0  0  0  0  0  0  0
    3.7488    0.2170    0.7295 N   0  0  0  0  0  0  0  0  0  0  0  0
    4.4233   -0.2477   -0.4742 C   0  0  0  0  0  0  0  0  0  0  0  0
    3.6927   -1.6792   -0.7545 C   0  0  2  0  0  0  0  0  0  0  0  0
    4.5488   -2.0355   -2.0911 C   0  0  0  0  0  0  0  0  0  0  0  0
    4.7939   -0.9584   -2.8150 O   0  0  0  0  0  0  0  0  0  0  0  0
    3.9091    0.0339   -2.9500 C   0  0  0  0  0  0  0  0  0  0  0  0
    2.4988   -0.2451   -2.5725 C   0  0  0  0  0  0  0  0  0  0  0  0
    2.4651   -1.1539   -1.5164 N   0  0  0  0  0  0  0  0  0  0  0  0
    1.2519   -1.6842   -1.0451 C   0  0  0  0  0  0  0  0  0  0  0  0
    1.1519   -2.5062   -0.0983 O   0  0  0  0  0  0  0  0  0  0  0  0
    0.0166   -1.2944   -1.6499 N   0  0  0  0  0  0  0  0  0  0  0  0
   -1.2652   -1.8299   -1.1808 C   0  0  0  0  0  0  0  0  0  0  0  0
   -1.2340   -1.3109    0.3759 C   0  0  2  0  0  0  0  0  0  0  0  0
   -2.6735   -1.9692    0.7268 C   0  0  0  0  0  0  0  0  0  0  0  0
   -3.0746   -1.2995    2.0094 C   0  0  0  0  0  0  0  0  0  0  0  0
   -2.2310   -0.1165    2.3631 C   0  0  0  0  0  0  0  0  0  0  0  0
   -1.9596    0.7731    1.2820 N   0  0  0  0  0  0  0  0  0  0  0  0
   -2.8444    1.9078    1.2094 C   0  0  0  0  0  0  0  0  0  0  0  0
   -4.2630    1.5028    1.0408 C   0  0  0  0  0  0  0  0  0  0  0  0
   -4.8548    1.3239   -0.1953 C   0  0  0  0  0  0  0  0  0  0  0  0
   -6.1581    0.9517   -0.3643 C   0  0  0  0  0  0  0  0  0  0  0  0
   -6.9432    0.7379    0.7387 C   0  0  0  0  0  0  0  0  0  0  0  0
   -6.3839    0.9077    1.9882 C   0  0  0  0  0  0  0  0  0  0  0  0
   -5.0657    1.2840    2.1449 C   0  0  0  0  0  0  0  0  0  0  0  0
   -1.8749    0.1408   -0.0055 C   0  0  0  0  0  0  0  0  0  0  0  0
  1  2  1  0
  2  3  2  0
  2  4  2  0
  2  5  1  0
  5  6  1  0
  7  6  1  1
  7  8  1  0
  8  9  1  0
  9 10  1  0
 10 11  1  0
 11 12  1  0
 12 13  1  0
 13 14  2  0
 13 15  1  0
 15 16  1  0
 17 16  1  6
 17 18  1  0
 18 19  1  0
 19 20  1  0
 20 21  1  0
 21 22  1  0
 22 23  1  0
 23 24  2  0
 24 25  1  0
 25 26  2  0
 26 27  1  0
 27 28  2  0
 21 29  1  0
 12  7  1  0
 29 17  1  0
 28 23  1  0
M  END
>  <zinc_id>  (1) 
ZINC001667676416

>  <smiles>  (1) 
CS(=O)(=O)NC[C@@H]1COCCN1C(=O)NC[C@@H]1CCCN(Cc2ccccc2)C1

$$$$
