
     RDKit          3D

 23 25  0  0  0  0  0  0  0  0999 V2000
    0.5688    1.1538   -0.1831 C   0  0  0  0  0  0  0  0  0  0  0  0
    0.2079    1.2168    1.3954 C   0  0  1  0  0  0  0  0  0  0  0  0
   -1.0164    0.2699    1.2985 N   0  0  0  0  0  0  0  0  0  0  0  0
   -2.0355    0.6993    0.3819 C   0  0  0  0  0  0  0  0  0  0  0  0
   -1.8466    1.7921   -0.2730 O   0  0  0  0  0  0  0  0  0  0  0  0
   -3.2414   -0.0620    0.1955 C   0  0  0  0  0  0  0  0  0  0  0  0
   -3.6235   -1.1975    0.7696 N   0  0  0  0  0  0  0  0  0  0  0  0
   -4.8695   -1.5464    0.3122 C   0  0  0  0  0  0  0  0  0  0  0  0
   -5.2427   -0.6128   -0.5472 O   0  0  0  0  0  0  0  0  0  0  0  0
   -4.2782    0.2977   -0.6393 C   0  0  0  0  0  0  0  0  0  0  0  0
   -4.2871    1.5075   -1.4949 C   0  0  0  0  0  0  0  0  0  0  0  0
   -5.5768    1.9390   -2.1354 C   0  0  0  0  0  0  0  0  0  0  0  0
   -4.8850    2.7838   -1.1009 C   0  0  0  0  0  0  0  0  0  0  0  0
    1.2363    0.0966    1.8945 C   0  0  0  0  0  0  0  0  0  0  0  0
    1.0988   -1.2355    1.3385 C   0  0  0  0  0  0  0  0  0  0  0  0
    2.4897   -1.1310    0.8559 N   0  0  0  0  0  0  0  0  0  0  0  0
    2.6777   -1.3223   -0.5552 C   0  0  0  0  0  0  0  0  0  0  0  0
    4.1427   -1.0420   -0.8387 C   0  0  0  0  0  0  0  0  0  0  0  0
    4.9497   -2.0190   -0.0136 C   0  0  0  0  0  0  0  0  0  0  0  0
    6.4088   -1.6924   -0.3143 C   0  0  0  0  0  0  0  0  0  0  0  0
    6.6295   -0.2476    0.0970 C   0  0  0  0  0  0  0  0  0  0  0  0
    7.9357    0.0805   -0.1639 F   0  0  0  0  0  0  0  0  0  0  0  0
    2.5572    0.2714    1.1990 C   0  0  0  0  0  0  0  0  0  0  0  0
  2  1  1  6
  2  3  1  0
  3  4  1  0
  4  5  2  0
  4  6  1  0
  6  7  1  0
  7  8  2  0
  8  9  1  0
  9 10  1  0
 10 11  1  0
 11 12  1  0
 12 13  1  0
  2 14  1  0
 14 15  1  0
 15 16  1  0
 16 17  1  0
 17 18  1  0
 18 19  1  0
 19 20  1  0
 20 21  1  0
 21 22  1  0
 16 23  1  0
 10  6  2  0
 13 11  1  0
 23 14  1  0
M  END
>  <zinc_id>  (1) 
ZINC001485529985

>  <smiles>  (1) 
C[C@@H](NC(=O)c1ncoc1C1CC1)C1CN(CCCCCF)C1

$$$$
