
     RDKit          3D

 26 27  0  0  0  0  0  0  0  0999 V2000
   -5.1945   -3.5906    1.3092 C   0  0  0  0  0  0  0  0  0  0  0  0
   -4.6929   -2.2724    1.8109 C   0  0  0  0  0  0  0  0  0  0  0  0
   -4.2800   -1.5062    0.6794 O   0  0  0  0  0  0  0  0  0  0  0  0
   -3.7824   -0.2456    0.9452 C   0  0  0  0  0  0  0  0  0  0  0  0
   -3.7094    0.1810    2.1458 O   0  0  0  0  0  0  0  0  0  0  0  0
   -3.3340    0.6083   -0.1713 C   0  0  1  0  0  0  0  0  0  0  0  0
   -2.2026   -0.0516   -0.9505 C   0  0  0  0  0  0  0  0  0  0  0  0
   -1.1127   -0.2649   -0.0258 N   0  0  0  0  0  0  0  0  0  0  0  0
    0.0725   -0.8735   -0.5315 C   0  0  0  0  0  0  0  0  0  0  0  0
    0.1993   -1.2158   -1.7169 O   0  0  0  0  0  0  0  0  0  0  0  0
    1.1555   -1.1020    0.3451 N   0  0  0  0  0  0  0  0  0  0  0  0
    2.4035   -1.6907    0.0115 C   0  0  0  0  0  0  0  0  0  0  0  0
    3.0633   -0.6934   -1.1550 C   0  0  1  0  0  0  0  0  0  0  0  0
    3.0786    0.6405   -0.1518 C   0  0  0  0  0  0  0  0  0  0  0  0
    4.5516   -1.0985   -0.7791 N   0  0  0  0  0  0  0  0  0  0  0  0
    5.4068   -0.2036   -1.4945 C   0  0  0  0  0  0  0  0  0  0  0  0
    6.6406    0.0802   -0.6939 C   0  0  0  0  0  0  0  0  0  0  0  0
    6.3080    0.8867    0.5293 C   0  0  0  0  0  0  0  0  0  0  0  0
    6.0476    2.3284    0.1457 C   0  0  0  0  0  0  0  0  0  0  0  0
    5.0710    0.3277    1.1541 C   0  0  0  0  0  0  0  0  0  0  0  0
    4.6899   -1.0064    0.6211 C   0  0  0  0  0  0  0  0  0  0  0  0
   -4.4547    0.8018   -1.1958 C   0  0  0  0  0  0  0  0  0  0  0  0
   -5.3520    1.9587   -0.8286 C   0  0  0  0  0  0  0  0  0  0  0  0
   -4.5531    3.1804   -0.4669 C   0  0  0  0  0  0  0  0  0  0  0  0
   -3.1831    2.9128   -0.5418 O   0  0  0  0  0  0  0  0  0  0  0  0
   -2.8369    1.9084    0.3601 C   0  0  0  0  0  0  0  0  0  0  0  0
  1  2  1  0
  2  3  1  0
  3  4  1  0
  4  5  2  0
  4  6  1  0
  6  7  1  6
  7  8  1  0
  8  9  1  0
  9 10  2  0
  9 11  1  0
 11 12  1  0
 12 13  1  0
 13 14  1  1
 13 15  1  0
 15 16  1  0
 16 17  1  0
 17 18  1  0
 18 19  1  0
 18 20  1  0
 20 21  1  0
  6 22  1  0
 22 23  1  0
 23 24  1  0
 24 25  1  0
 25 26  1  0
 26  6  1  0
 21 15  1  0
M  END
>  <zinc_id>  (1) 
ZINC001667676383

>  <smiles>  (1) 
CCOC(=O)[C@@]1(CNC(=O)NC[C@@H](C)N2CCC(C)CC2)CCCOC1

$$$$
