
     RDKit          3D

 29 32  0  0  0  0  0  0  0  0999 V2000
   -7.3503   -0.5346   -2.2795 C   0  0  0  0  0  0  0  0  0  0  0  0
   -6.2408   -0.4170   -1.3088 C   0  0  0  0  0  0  0  0  0  0  0  0
   -6.2087   -1.1663   -0.1435 C   0  0  0  0  0  0  0  0  0  0  0  0
   -5.1735   -1.0408    0.7426 C   0  0  0  0  0  0  0  0  0  0  0  0
   -4.1296   -0.1687    0.5100 C   0  0  0  0  0  0  0  0  0  0  0  0
   -2.9980   -0.0136    1.4489 C   0  0  0  0  0  0  0  0  0  0  0  0
   -2.1102    1.0849    1.1654 N   0  0  0  0  0  0  0  0  0  0  0  0
   -1.3393    1.1164   -0.0539 C   0  0  0  0  0  0  0  0  0  0  0  0
   -1.4474    0.1765   -0.8733 O   0  0  0  0  0  0  0  0  0  0  0  0
   -0.4634    2.1573   -0.3754 N   0  0  0  0  0  0  0  0  0  0  0  0
    0.3742    2.4889   -1.3602 C   0  0  0  0  0  0  0  0  0  0  0  0
    1.6304    1.5637   -1.7004 C   0  0  2  0  0  0  0  0  0  0  0  0
    0.8885    0.1749   -2.0937 C   0  0  0  0  0  0  0  0  0  0  0  0
    1.5518   -0.9385   -1.3444 C   0  0  0  0  0  0  0  0  0  0  0  0
    3.0226   -0.5752   -1.2879 C   0  0  0  0  0  0  0  0  0  0  0  0
    3.1089    0.3750   -0.2322 N   0  0  0  0  0  0  0  0  0  0  0  0
    3.8288    0.0339    0.9017 C   0  0  0  0  0  0  0  0  0  0  0  0
    5.2254   -0.2706    0.5216 C   0  0  0  0  0  0  0  0  0  0  0  0
    6.2377    0.1658    1.3257 C   0  0  0  0  0  0  0  0  0  0  0  0
    7.5398   -0.1157    0.9704 C   0  0  0  0  0  0  0  0  0  0  0  0
    7.8516   -0.8214   -0.1690 C   0  0  0  0  0  0  0  0  0  0  0  0
    6.8367   -1.2671   -0.9878 C   0  0  0  0  0  0  0  0  0  0  0  0
    5.5174   -0.9743   -0.6136 C   0  0  0  0  0  0  0  0  0  0  0  0
    1.9387    1.1395   -0.1464 C   0  0  0  0  0  0  0  0  0  0  0  0
   -2.2355   -1.3461    1.5097 C   0  0  0  0  0  0  0  0  0  0  0  0
   -3.0985   -1.6710    2.7179 C   0  0  0  0  0  0  0  0  0  0  0  0
   -3.3930   -0.1738    2.8907 C   0  0  0  0  0  0  0  0  0  0  0  0
   -4.1659    0.5695   -0.6420 C   0  0  0  0  0  0  0  0  0  0  0  0
   -5.1985    0.4483   -1.5319 C   0  0  0  0  0  0  0  0  0  0  0  0
  1  2  1  0
  2  3  2  0
  3  4  1  0
  4  5  2  0
  5  6  1  0
  6  7  1  0
  7  8  1  0
  8  9  2  0
  8 10  1  0
 10 11  1  0
 12 11  1  1
 12 13  1  0
 13 14  1  0
 14 15  1  0
 15 16  1  0
 16 17  1  0
 17 18  1  0
 18 19  2  0
 19 20  1  0
 20 21  2  0
 21 22  1  0
 22 23  2  0
 16 24  1  0
  6 25  1  0
 25 26  1  0
 26 27  1  0
  5 28  1  0
 28 29  2  0
 29  2  1  0
 27  6  1  0
 24 12  1  0
 23 18  1  0
M  END
>  <zinc_id>  (1) 
ZINC001667676444

>  <smiles>  (1) 
Cc1ccc(C2(NC(=O)NC[C@@H]3CCCN(Cc4ccccc4)C3)CCC2)cc1

$$$$
