
     RDKit          3D

 20 21  0  0  0  0  0  0  0  0999 V2000
   -3.1189    2.6236    1.1407 C   0  0  0  0  0  0  0  0  0  0  0  0
   -3.6994    1.7013    0.0715 C   0  0  0  0  0  0  0  0  0  0  0  0
   -4.3285    2.1399   -0.9574 N   0  0  0  0  0  0  0  0  0  0  0  0
   -4.8077    1.3033   -1.8638 C   0  0  0  0  0  0  0  0  0  0  0  0
   -4.3524   -0.2122   -1.2334 S   0  0  0  0  0  0  0  0  0  0  0  0
   -3.5440    0.3259    0.2020 C   0  0  0  0  0  0  0  0  0  0  0  0
   -2.9297   -0.4199    1.3181 C   0  0  0  0  0  0  0  0  0  0  0  0
   -1.4921   -0.2770    1.4151 C   0  0  0  0  0  0  0  0  0  0  0  0
   -0.7704   -0.7420    0.2097 C   0  0  0  0  0  0  0  0  0  0  0  0
   -1.4129   -1.1079   -0.7952 O   0  0  0  0  0  0  0  0  0  0  0  0
    0.6477   -0.7517    0.2630 N   0  0  0  0  0  0  0  0  0  0  0  0
    1.3826   -1.2360   -1.0115 C   0  0  2  0  0  0  0  0  0  0  0  0
    0.5170   -2.6016   -1.1643 C   0  0  0  0  0  0  0  0  0  0  0  0
    2.5765   -1.9945   -0.1508 C   0  0  0  0  0  0  0  0  0  0  0  0
    3.2815   -0.9616    0.6914 C   0  0  0  0  0  0  0  0  0  0  0  0
    3.9804   -0.5790   -0.4273 N   0  0  0  0  0  0  0  0  0  0  0  0
    4.0892    0.6029   -1.0357 C   0  0  0  0  0  0  0  0  0  0  0  0
    4.8119    1.6160   -0.3076 C   0  0  0  0  0  0  0  0  0  0  0  0
    5.4035    2.4151    0.2746 N   0  0  0  0  0  0  0  0  0  0  0  0
    3.7656   -1.8445   -1.0463 C   0  0  0  0  0  0  0  0  0  0  0  0
  1  2  1  0
  2  3  1  0
  3  4  2  0
  4  5  1  0
  5  6  1  0
  6  7  1  0
  7  8  1  0
  8  9  1  0
  9 10  2  0
  9 11  1  0
 11 12  1  0
 12 13  1  1
 12 14  1  0
 14 15  1  0
 15 16  1  0
 16 17  1  0
 17 18  1  0
 18 19  3  0
 16 20  1  0
  6  2  2  0
 20 14  1  0
M  END
>  <zinc_id>  (1) 
ZINC001485529961

>  <smiles>  (1) 
Cc1ncsc1CCC(=O)N[C@H](C)C1CN(CC#N)C1

$$$$
