
     RDKit          3D

 30 33  0  0  0  0  0  0  0  0999 V2000
    4.4543    0.6757    1.5451 C   0  0  0  0  0  0  0  0  0  0  0  0
    4.4628   -0.5366    0.5901 C   0  0  1  0  0  0  0  0  0  0  0  0
    5.5178   -0.3472   -0.3807 C   0  0  0  0  0  0  0  0  0  0  0  0
    6.1533   -1.3530   -1.1060 C   0  0  0  0  0  0  0  0  0  0  0  0
    7.1545   -1.0591   -2.0149 C   0  0  0  0  0  0  0  0  0  0  0  0
    7.5554    0.2555   -2.2320 C   0  0  0  0  0  0  0  0  0  0  0  0
    6.9260    1.2777   -1.5158 C   0  0  0  0  0  0  0  0  0  0  0  0
    7.2755    2.5684   -1.6955 F   0  0  0  0  0  0  0  0  0  0  0  0
    5.9497    0.9235   -0.6371 C   0  0  0  0  0  0  0  0  0  0  0  0
    4.5103   -1.7400    1.4513 C   0  0  0  0  0  0  0  0  0  0  0  0
    3.0869   -1.7566    2.0256 C   0  0  0  0  0  0  0  0  0  0  0  0
    2.3222   -0.8781    1.1692 N   0  0  0  0  0  0  0  0  0  0  0  0
    1.0734   -0.2405    1.3984 C   0  0  0  0  0  0  0  0  0  0  0  0
    0.4208   -0.3636    2.4584 O   0  0  0  0  0  0  0  0  0  0  0  0
    0.4865    0.5906    0.4051 N   0  0  0  0  0  0  0  0  0  0  0  0
   -0.7325    1.2815    0.5001 C   0  0  0  0  0  0  0  0  0  0  0  0
   -1.9337    0.2010    0.7516 C   0  0  2  0  0  0  0  0  0  0  0  0
   -1.6632   -0.6046   -0.6580 C   0  0  0  0  0  0  0  0  0  0  0  0
   -2.8430   -1.5521   -0.7730 C   0  0  0  0  0  0  0  0  0  0  0  0
   -4.0288   -1.0343   -0.0127 C   0  0  0  0  0  0  0  0  0  0  0  0
   -4.1902    0.3584   -0.0228 N   0  0  0  0  0  0  0  0  0  0  0  0
   -5.4170    0.9346    0.3299 C   0  0  0  0  0  0  0  0  0  0  0  0
   -6.5993    0.6080   -0.4717 C   0  0  0  0  0  0  0  0  0  0  0  0
   -6.5168    0.0193   -1.6967 C   0  0  0  0  0  0  0  0  0  0  0  0
   -7.6767   -0.2636   -2.3912 C   0  0  0  0  0  0  0  0  0  0  0  0
   -8.9188    0.0418   -1.8528 C   0  0  0  0  0  0  0  0  0  0  0  0
   -8.9874    0.6333   -0.6196 C   0  0  0  0  0  0  0  0  0  0  0  0
   -7.8486    0.9170    0.0711 C   0  0  0  0  0  0  0  0  0  0  0  0
   -3.0738    1.1779    0.1076 C   0  0  0  0  0  0  0  0  0  0  0  0
    3.0803   -0.7350   -0.0496 C   0  0  0  0  0  0  0  0  0  0  0  0
  2  1  1  1
  2  3  1  0
  3  4  2  0
  4  5  1  0
  5  6  2  0
  6  7  1  0
  7  8  1  0
  7  9  2  0
  2 10  1  0
 10 11  1  0
 11 12  1  0
 12 13  1  0
 13 14  2  0
 13 15  1  0
 15 16  1  0
 17 16  1  6
 17 18  1  0
 18 19  1  0
 19 20  1  0
 20 21  1  0
 21 22  1  0
 22 23  1  0
 23 24  2  0
 24 25  1  0
 25 26  2  0
 26 27  1  0
 27 28  2  0
 21 29  1  0
 12 30  1  0
 30  2  1  0
  9  3  1  0
 29 17  1  0
 28 23  1  0
M  END
>  <zinc_id>  (1) 
ZINC001667676432

>  <smiles>  (1) 
C[C@@]1(c2cccc(F)c2)CCN(C(=O)NC[C@@H]2CCCN(Cc3ccccc3)C2)C1

$$$$
