
     RDKit          3D

 27 29  0  0  0  0  0  0  0  0999 V2000
   -1.1813   -1.7702   -2.0019 C   0  0  0  0  0  0  0  0  0  0  0  0
   -1.2773   -1.4727   -0.8350 C   0  0  0  0  0  0  0  0  0  0  0  0
   -1.3833   -1.0900    0.5971 C   0  0  0  0  0  0  0  0  0  0  0  0
   -1.3488    0.3110    0.6752 N   0  0  0  0  0  0  0  0  0  0  0  0
   -0.1572    1.0834    0.8208 C   0  0  0  0  0  0  0  0  0  0  0  0
   -0.1208    2.3173    0.8809 O   0  0  0  0  0  0  0  0  0  0  0  0
    1.0619    0.3879    0.9033 N   0  0  0  0  0  0  0  0  0  0  0  0
    2.3644    1.0463    1.0552 C   0  0  0  0  0  0  0  0  0  0  0  0
    3.3141   -0.3021    1.1095 C   0  0  1  0  0  0  0  0  0  0  0  0
    2.8719   -0.8337   -0.3775 C   0  0  0  0  0  0  0  0  0  0  0  0
    4.6007    0.4318    0.6072 N   0  0  0  0  0  0  0  0  0  0  0  0
    5.6287   -0.5392    0.8472 C   0  0  0  0  0  0  0  0  0  0  0  0
    5.6321   -1.6634   -0.1619 C   0  0  0  0  0  0  0  0  0  0  0  0
    5.8958   -1.0250   -1.5135 C   0  0  0  0  0  0  0  0  0  0  0  0
    7.1218   -0.1492   -1.3652 C   0  0  0  0  0  0  0  0  0  0  0  0
    4.7194   -0.1181   -1.7947 C   0  0  0  0  0  0  0  0  0  0  0  0
    4.4416    0.8762   -0.7028 C   0  0  0  0  0  0  0  0  0  0  0  0
   -2.6441    1.1885    0.6095 C   0  0  1  0  0  0  0  0  0  0  0  0
   -2.4567    1.4817   -1.0371 C   0  0  0  0  0  0  0  0  0  0  0  0
   -3.6054    2.4180   -1.3521 C   0  0  0  0  0  0  0  0  0  0  0  0
   -4.9234    1.9523   -0.8444 C   0  0  0  0  0  0  0  0  0  0  0  0
   -4.7930    0.5605   -0.3369 C   0  0  0  0  0  0  0  0  0  0  0  0
   -5.8480   -0.3226   -0.6175 C   0  0  0  0  0  0  0  0  0  0  0  0
   -5.7818   -1.6192   -0.1615 C   0  0  0  0  0  0  0  0  0  0  0  0
   -4.6967   -2.0523    0.5623 C   0  0  0  0  0  0  0  0  0  0  0  0
   -3.6876   -1.1656    0.8166 C   0  0  0  0  0  0  0  0  0  0  0  0
   -3.7468    0.0684    0.3849 C   0  0  0  0  0  0  0  0  0  0  0  0
  1  2  3  0
  2  3  1  0
  3  4  1  0
  4  5  1  0
  5  6  2  0
  5  7  1  0
  7  8  1  0
  8  9  1  0
  9 10  1  6
  9 11  1  0
 11 12  1  0
 12 13  1  0
 13 14  1  0
 14 15  1  0
 14 16  1  0
 16 17  1  0
 18  4  1  6
 18 19  1  0
 19 20  1  0
 20 21  1  0
 21 22  1  0
 22 23  2  0
 23 24  1  0
 24 25  2  0
 25 26  1  0
 26 27  2  0
 17 11  1  0
 27 18  1  0
 27 22  1  0
M  END
>  <zinc_id>  (1) 
ZINC001667676385

>  <smiles>  (1) 
C#CCN(C(=O)NC[C@@H](C)N1CCC(C)CC1)[C@H]1CCCc2ccccc21

$$$$
