
     RDKit          3D

 23 24  0  0  0  0  0  0  0  0999 V2000
   -6.5462    0.3068    1.5667 C   0  0  0  0  0  0  0  0  0  0  0  0
   -5.9143    1.2701    1.0183 C   0  0  0  0  0  0  0  0  0  0  0  0
   -5.2179    1.4871   -0.1660 C   0  0  0  0  0  0  0  0  0  0  0  0
   -4.8956    0.6908   -1.2553 C   0  0  0  0  0  0  0  0  0  0  0  0
   -3.9888   -0.6106   -1.0383 C   0  0  2  0  0  0  0  0  0  0  0  0
   -5.0140   -1.3772   -0.0364 C   0  0  0  0  0  0  0  0  0  0  0  0
   -3.1213   -0.0568    0.1522 N   0  0  0  0  0  0  0  0  0  0  0  0
   -2.4723    1.0420   -0.4293 C   0  0  0  0  0  0  0  0  0  0  0  0
   -1.2518    0.1974   -0.7278 C   0  0  0  0  0  0  0  0  0  0  0  0
   -0.1641    1.1941   -0.0764 C   0  0  1  0  0  0  0  0  0  0  0  0
   -0.7223    1.1638    1.4373 C   0  0  0  0  0  0  0  0  0  0  0  0
    1.0122    0.4778   -0.0281 N   0  0  0  0  0  0  0  0  0  0  0  0
    1.6520   -0.6638    0.2179 C   0  0  0  0  0  0  0  0  0  0  0  0
    0.9151   -1.6420    0.5982 O   0  0  0  0  0  0  0  0  0  0  0  0
    3.1231   -0.8344    0.0755 C   0  0  0  0  0  0  0  0  0  0  0  0
    3.6927   -1.9761    0.6008 C   0  0  0  0  0  0  0  0  0  0  0  0
    5.0746   -2.0531    0.4104 C   0  0  0  0  0  0  0  0  0  0  0  0
    5.8122   -1.1139   -0.2259 C   0  0  0  0  0  0  0  0  0  0  0  0
    5.1707    0.0164   -0.7385 C   0  0  0  0  0  0  0  0  0  0  0  0
    5.7733    1.0332   -1.4133 O   0  0  0  0  0  0  0  0  0  0  0  0
    5.0701    2.1397   -1.8926 C   0  0  0  0  0  0  0  0  0  0  0  0
    3.8606    0.0733   -0.5452 N   0  0  0  0  0  0  0  0  0  0  0  0
   -1.8482   -0.7647    0.1416 C   0  0  0  0  0  0  0  0  0  0  0  0
  1  2  2  0
  2  3  1  0
  3  4  1  0
  4  5  1  0
  5  6  1  1
  5  7  1  0
  7  8  1  0
  8  9  1  0
  9 10  1  0
 10 11  1  1
 10 12  1  0
 12 13  1  0
 13 14  2  0
 13 15  1  0
 15 16  2  0
 16 17  1  0
 17 18  2  0
 18 19  1  0
 19 20  1  0
 20 21  1  0
 19 22  2  0
  9 23  1  0
 23  7  1  0
 22 15  1  0
M  END
>  <zinc_id>  (1) 
ZINC001485529926

>  <smiles>  (1) 
C=CCC[C@H](C)N1CC([C@@H](C)NC(=O)c2cccc(OC)n2)C1

$$$$
