
     RDKit          3D

 24 24  0  0  0  0  0  0  0  0999 V2000
    2.4655    1.3675   -0.7909 C   0  0  0  0  0  0  0  0  0  0  0  0
    3.8053    1.8210   -0.3285 C   0  0  0  0  0  0  0  0  0  0  0  0
    3.9497    3.2978   -0.2328 C   0  0  0  0  0  0  0  0  0  0  0  0
    4.2543    1.0237    0.8343 C   0  0  0  0  0  0  0  0  0  0  0  0
    4.3833   -0.4376    0.5832 C   0  0  0  0  0  0  0  0  0  0  0  0
    5.4054   -0.6075   -0.5583 C   0  0  0  0  0  0  0  0  0  0  0  0
    5.0639   -1.0385    1.8163 C   0  0  0  0  0  0  0  0  0  0  0  0
    3.1771   -1.1868    0.2446 C   0  0  0  0  0  0  0  0  0  0  0  0
    3.0628   -1.8489   -0.8501 O   0  0  0  0  0  0  0  0  0  0  0  0
    2.0473   -1.2473    1.0969 N   0  0  0  0  0  0  0  0  0  0  0  0
    0.8424   -2.1217    0.6293 C   0  0  1  0  0  0  0  0  0  0  0  0
   -0.1890   -1.4757    1.7041 C   0  0  0  0  0  0  0  0  0  0  0  0
    0.4327   -1.2433   -0.6478 C   0  0  0  0  0  0  0  0  0  0  0  0
   -0.7362   -1.8702   -1.3748 C   0  0  0  0  0  0  0  0  0  0  0  0
   -1.5833   -1.0686   -0.4859 N   0  0  0  0  0  0  0  0  0  0  0  0
   -2.7683   -0.5624   -1.0405 C   0  0  0  0  0  0  0  0  0  0  0  0
   -3.5537    0.2138   -0.1078 C   0  0  0  0  0  0  0  0  0  0  0  0
   -3.1288    0.3869    1.0818 O   0  0  0  0  0  0  0  0  0  0  0  0
   -4.7870    0.7765   -0.5312 N   0  0  0  0  0  0  0  0  0  0  0  0
   -5.2414    0.5513   -1.8665 C   0  0  0  0  0  0  0  0  0  0  0  0
   -5.5442    1.5610    0.3924 C   0  0  0  0  0  0  0  0  0  0  0  0
   -5.7852    0.8735    1.6931 C   0  0  0  0  0  0  0  0  0  0  0  0
   -5.0584    2.9731    0.5903 C   0  0  0  0  0  0  0  0  0  0  0  0
   -0.5144   -0.1374   -0.3707 C   0  0  0  0  0  0  0  0  0  0  0  0
  1  2  1  0
  2  3  1  0
  2  4  1  0
  4  5  1  0
  5  6  1  0
  5  7  1  0
  5  8  1  0
  8  9  2  0
  8 10  1  0
 10 11  1  0
 11 12  1  1
 11 13  1  0
 13 14  1  0
 14 15  1  0
 15 16  1  0
 16 17  1  0
 17 18  2  0
 17 19  1  0
 19 20  1  0
 19 21  1  0
 21 22  1  0
 21 23  1  0
 15 24  1  0
 24 13  1  0
M  END
>  <zinc_id>  (1) 
ZINC001485529988

>  <smiles>  (1) 
CC(C)CC(C)(C)C(=O)N[C@@H](C)C1CN(CC(=O)N(C)C(C)C)C1

$$$$
