
     RDKit          3D

 23 25  0  0  0  0  0  0  0  0999 V2000
    7.9457   -1.3204    1.3114 C   0  0  0  0  0  0  0  0  0  0  0  0
    6.8186   -1.0212    0.3952 C   0  0  0  0  0  0  0  0  0  0  0  0
    6.8481   -1.0157   -0.9085 N   0  0  0  0  0  0  0  0  0  0  0  0
    5.8040   -0.7379   -1.5863 N   0  0  0  0  0  0  0  0  0  0  0  0
    4.6869   -0.4529   -0.9786 C   0  0  0  0  0  0  0  0  0  0  0  0
    3.3699   -0.0926   -1.5760 C   0  0  0  0  0  0  0  0  0  0  0  0
    2.3580   -0.2154   -0.5366 N   0  0  0  0  0  0  0  0  0  0  0  0
    1.0252    0.1721   -1.0322 C   0  0  0  0  0  0  0  0  0  0  0  0
    1.0532    1.2755   -0.0634 C   0  0  0  0  0  0  0  0  0  0  0  0
    0.1393    1.0077    1.2485 C   0  0  2  0  0  0  0  0  0  0  0  0
    0.8862   -0.3612    1.7431 C   0  0  0  0  0  0  0  0  0  0  0  0
   -1.0108    0.2735    0.4782 N   0  0  0  0  0  0  0  0  0  0  0  0
   -2.3107    0.6640    0.7739 C   0  0  0  0  0  0  0  0  0  0  0  0
   -2.4333    1.5682    1.6399 O   0  0  0  0  0  0  0  0  0  0  0  0
   -3.5615    0.1410    0.1886 C   0  0  0  0  0  0  0  0  0  0  0  0
   -4.7941    0.7718    0.7613 C   0  0  0  0  0  0  0  0  0  0  0  0
   -5.9533    0.2120    0.1196 N   0  0  0  0  0  0  0  0  0  0  0  0
   -6.5224    0.7150   -0.9846 C   0  0  0  0  0  0  0  0  0  0  0  0
   -7.6020   -0.0323   -1.3666 C   0  0  0  0  0  0  0  0  0  0  0  0
   -7.7048   -1.0479   -0.4533 C   0  0  0  0  0  0  0  0  0  0  0  0
   -6.6647   -0.8646    0.4555 C   0  0  0  0  0  0  0  0  0  0  0  0
    2.4540    0.9556    0.3447 C   0  0  0  0  0  0  0  0  0  0  0  0
    5.1686   -0.5944    0.6840 S   0  0  0  0  0  0  0  0  0  0  0  0
  1  2  1  0
  2  3  2  0
  3  4  1  0
  4  5  2  0
  5  6  1  0
  6  7  1  0
  7  8  1  0
  8  9  1  0
  9 10  1  0
 10 11  1  1
 10 12  1  0
 12 13  1  0
 13 14  2  0
 13 15  1  0
 15 16  1  0
 16 17  1  0
 17 18  1  0
 18 19  2  0
 19 20  1  0
 20 21  2  0
  9 22  1  0
  5 23  1  0
 23  2  1  0
 22  7  1  0
 21 17  1  0
M  END
>  <zinc_id>  (1) 
ZINC001485529963

>  <smiles>  (1) 
Cc1nnc(CN2CC([C@H](C)NC(=O)CCn3cccc3)C2)s1

$$$$
