
     RDKit          3D

 30 33  0  0  0  0  0  0  0  0999 V2000
    3.3008   -1.6306   -0.8233 C   0  0  0  0  0  0  0  0  0  0  0  0
    4.1615   -0.4171   -1.3069 C   0  0  1  0  0  0  0  0  0  0  0  0
    5.2173   -0.3526   -0.3890 C   0  0  0  0  0  0  0  0  0  0  0  0
    4.7201   -0.0463    0.8965 C   0  0  0  0  0  0  0  0  0  0  0  0
    5.4598    0.0581    2.0155 C   0  0  0  0  0  0  0  0  0  0  0  0
    6.8087   -0.1513    1.8980 C   0  0  0  0  0  0  0  0  0  0  0  0
    7.3453   -0.4520    0.6738 C   0  0  0  0  0  0  0  0  0  0  0  0
    8.6930   -0.6522    0.6422 F   0  0  0  0  0  0  0  0  0  0  0  0
    6.5522   -0.5523   -0.4715 C   0  0  0  0  0  0  0  0  0  0  0  0
    4.0989   -0.4577   -2.7225 C   0  0  0  0  0  0  0  0  0  0  0  0
    2.5332   -0.4054   -2.8860 C   0  0  0  0  0  0  0  0  0  0  0  0
    2.0514   -0.0126   -1.5802 N   0  0  0  0  0  0  0  0  0  0  0  0
    0.9814   -0.2456   -0.7480 C   0  0  0  0  0  0  0  0  0  0  0  0
    0.8966    0.3525    0.3619 O   0  0  0  0  0  0  0  0  0  0  0  0
   -0.1320   -1.1497   -0.9748 N   0  0  0  0  0  0  0  0  0  0  0  0
   -1.1636   -1.2555    0.0812 C   0  0  0  0  0  0  0  0  0  0  0  0
   -1.6871    0.3101    0.1119 C   0  0  1  0  0  0  0  0  0  0  0  0
   -2.1967    0.2592   -1.4187 C   0  0  0  0  0  0  0  0  0  0  0  0
   -3.0786    1.4119   -1.7118 C   0  0  0  0  0  0  0  0  0  0  0  0
   -4.2459    1.4155   -0.7497 C   0  0  0  0  0  0  0  0  0  0  0  0
   -3.8400    1.1532    0.5934 N   0  0  0  0  0  0  0  0  0  0  0  0
   -4.8216    1.4032    1.5861 C   0  0  0  0  0  0  0  0  0  0  0  0
   -5.9496    0.4787    1.3554 C   0  0  0  0  0  0  0  0  0  0  0  0
   -5.9376   -0.7208    2.0550 C   0  0  0  0  0  0  0  0  0  0  0  0
   -6.9200   -1.6627    1.9231 C   0  0  0  0  0  0  0  0  0  0  0  0
   -7.9551   -1.4047    1.0655 C   0  0  0  0  0  0  0  0  0  0  0  0
   -7.9996   -0.2098    0.3475 C   0  0  0  0  0  0  0  0  0  0  0  0
   -6.9887    0.7345    0.4958 C   0  0  0  0  0  0  0  0  0  0  0  0
   -3.1142   -0.0762    0.7571 C   0  0  0  0  0  0  0  0  0  0  0  0
    3.2102    0.8114   -1.0774 C   0  0  0  0  0  0  0  0  0  0  0  0
  2  1  1  1
  2  3  1  0
  3  4  2  0
  4  5  1  0
  5  6  2  0
  6  7  1  0
  7  8  1  0
  7  9  2  0
  2 10  1  0
 10 11  1  0
 11 12  1  0
 12 13  1  0
 13 14  2  0
 13 15  1  0
 15 16  1  0
 17 16  1  6
 17 18  1  0
 18 19  1  0
 19 20  1  0
 20 21  1  0
 21 22  1  0
 22 23  1  0
 23 24  2  0
 24 25  1  0
 25 26  2  0
 26 27  1  0
 27 28  2  0
 21 29  1  0
 12 30  1  0
 30  2  1  0
  9  3  1  0
 29 17  1  0
 28 23  1  0
M  END
>  <zinc_id>  (1) 
ZINC001667676431

>  <smiles>  (1) 
C[C@@]1(c2cccc(F)c2)CCN(C(=O)NC[C@H]2CCCN(Cc3ccccc3)C2)C1

$$$$
