
     RDKit          3D

 26 28  0  0  0  0  0  0  0  0999 V2000
    5.1762    1.1826    3.0100 C   0  0  0  0  0  0  0  0  0  0  0  0
    4.7959    0.5950    2.0134 C   0  0  0  0  0  0  0  0  0  0  0  0
    4.2844   -0.1905    0.7403 C   0  0  1  0  0  0  0  0  0  0  0  0
    3.7874    1.1510   -0.0407 C   0  0  0  0  0  0  0  0  0  0  0  0
    4.3215    1.3324   -1.3150 C   0  0  0  0  0  0  0  0  0  0  0  0
    4.4929   -0.0136   -2.2219 C   0  0  2  0  0  0  0  0  0  0  0  0
    3.3507   -0.8551   -1.5374 N   0  0  0  0  0  0  0  0  0  0  0  0
    2.0661   -0.3065   -1.6781 C   0  0  0  0  0  0  0  0  0  0  0  0
    1.8379    0.7684   -2.2947 O   0  0  0  0  0  0  0  0  0  0  0  0
    0.9817   -0.9866   -1.1059 N   0  0  0  0  0  0  0  0  0  0  0  0
   -0.3331   -0.4679   -1.2237 C   0  0  0  0  0  0  0  0  0  0  0  0
   -0.3443    1.0067   -0.5198 C   0  0  2  0  0  0  0  0  0  0  0  0
    0.0994    0.4425    0.9448 C   0  0  0  0  0  0  0  0  0  0  0  0
   -0.9095    0.8779    1.9454 C   0  0  0  0  0  0  0  0  0  0  0  0
   -2.1166   -0.0390    1.8221 C   0  0  0  0  0  0  0  0  0  0  0  0
   -2.2248   -0.2907    0.3995 N   0  0  0  0  0  0  0  0  0  0  0  0
   -3.3313   -1.0151   -0.0376 C   0  0  0  0  0  0  0  0  0  0  0  0
   -4.6513   -0.4753    0.2298 C   0  0  0  0  0  0  0  0  0  0  0  0
   -5.2294    0.3662   -0.6907 C   0  0  0  0  0  0  0  0  0  0  0  0
   -6.4858    0.9010   -0.4771 C   0  0  0  0  0  0  0  0  0  0  0  0
   -7.1551    0.5896    0.6571 C   0  0  0  0  0  0  0  0  0  0  0  0
   -6.5784   -0.2495    1.5751 C   0  0  0  0  0  0  0  0  0  0  0  0
   -5.3305   -0.7774    1.3571 C   0  0  0  0  0  0  0  0  0  0  0  0
   -1.9528    0.9763   -0.2442 C   0  0  0  0  0  0  0  0  0  0  0  0
    5.7050   -0.6351   -1.3200 C   0  0  0  0  0  0  0  0  0  0  0  0
    5.7437   -0.2018    0.0123 C   0  0  0  0  0  0  0  0  0  0  0  0
  1  2  3  0
  3  2  1  1
  3  4  1  0
  4  5  1  0
  5  6  1  0
  6  7  1  1
  7  8  1  0
  8  9  2  0
  8 10  1  0
 10 11  1  0
 12 11  1  6
 12 13  1  0
 13 14  1  0
 14 15  1  0
 15 16  1  0
 16 17  1  0
 17 18  1  0
 18 19  2  0
 19 20  1  0
 20 21  2  0
 21 22  1  0
 22 23  2  0
 16 24  1  0
  6 25  1  0
 25 26  1  0
 26  3  1  0
 24 12  1  0
 23 18  1  0
M  END
>  <zinc_id>  (1) 
ZINC001667676403

>  <smiles>  (1) 
C#C[C@@H]1CC[C@@H](NC(=O)NC[C@@H]2CCCN(Cc3ccccc3)C2)CC1

$$$$
