
     RDKit          3D

 25 26  0  0  0  0  0  0  0  0999 V2000
   -7.2177   -0.7318    2.2947 C   0  0  0  0  0  0  0  0  0  0  0  0
   -6.7129   -0.4822    0.8611 C   0  0  0  0  0  0  0  0  0  0  0  0
   -6.6181    1.0437    0.6999 C   0  0  0  0  0  0  0  0  0  0  0  0
   -5.2039    1.4055    1.0921 C   0  0  0  0  0  0  0  0  0  0  0  0
   -4.2726    1.0165    0.0567 N   0  0  0  0  0  0  0  0  0  0  0  0
   -2.9157    1.0733    0.8085 C   0  0  1  0  0  0  0  0  0  0  0  0
   -3.3222   -0.1001    1.8606 C   0  0  0  0  0  0  0  0  0  0  0  0
   -2.1584    0.0595   -0.2122 C   0  0  0  0  0  0  0  0  0  0  0  0
   -0.8325    0.0276    0.3977 N   0  0  0  0  0  0  0  0  0  0  0  0
    0.1947   -0.7920   -0.2221 C   0  0  0  0  0  0  0  0  0  0  0  0
   -0.0755   -1.4503   -1.2562 O   0  0  0  0  0  0  0  0  0  0  0  0
    1.4904   -0.8689    0.3061 N   0  0  0  0  0  0  0  0  0  0  0  0
    2.6325   -1.5725   -0.1277 C   0  0  0  0  0  0  0  0  0  0  0  0
    3.1010   -1.1343   -1.4714 C   0  0  2  0  0  0  0  0  0  0  0  0
    2.1297   -1.3518   -2.4264 O   0  0  0  0  0  0  0  0  0  0  0  0
    4.4062   -1.7982   -1.8820 C   0  0  0  0  0  0  0  0  0  0  0  0
    5.0920   -2.4769   -0.7159 C   0  0  0  0  0  0  0  0  0  0  0  0
    5.0906   -1.5966    0.5181 C   0  0  0  0  0  0  0  0  0  0  0  0
    5.3030   -0.1466    0.1341 C   0  0  0  0  0  0  0  0  0  0  0  0
    6.0744    0.5031    1.2754 C   0  0  0  0  0  0  0  0  0  0  0  0
    6.1989   -0.1137   -1.0791 C   0  0  0  0  0  0  0  0  0  0  0  0
    4.0288    0.6142   -0.0409 C   0  0  0  0  0  0  0  0  0  0  0  0
    3.3786    0.3760   -1.3790 C   0  0  0  0  0  0  0  0  0  0  0  0
   -4.5302   -0.3483   -0.3168 C   0  0  0  0  0  0  0  0  0  0  0  0
   -5.2614   -0.9884    0.8248 C   0  0  0  0  0  0  0  0  0  0  0  0
  1  2  1  0
  2  3  1  0
  3  4  1  0
  4  5  1  0
  5  6  1  0
  6  7  1  1
  6  8  1  0
  8  9  1  0
  9 10  1  0
 10 11  2  0
 10 12  1  0
 12 13  1  0
 13 14  1  0
 14 15  1  6
 14 16  1  0
 16 17  1  0
 17 18  1  0
 18 19  1  0
 19 20  1  0
 19 21  1  0
 19 22  1  0
 22 23  1  0
  5 24  1  0
 24 25  1  0
 25  2  1  0
 23 14  1  0
M  END
>  <zinc_id>  (1) 
ZINC001667676410

>  <smiles>  (1) 
CC1CCN([C@@H](C)CNC(=O)NC[C@]2(O)CCCC(C)(C)CC2)CC1

$$$$
