
     RDKit          3D

 33 36  0  0  0  0  0  0  0  0999 V2000
    5.4212    2.1611   -0.2325 C   0  0  0  0  0  0  0  0  0  0  0  0
    4.5175    1.5937    0.8699 C   0  0  0  0  0  0  0  0  0  0  0  0
    5.2390    1.7655    2.1990 C   0  0  0  0  0  0  0  0  0  0  0  0
    3.2202    2.3463    0.8378 C   0  0  0  0  0  0  0  0  0  0  0  0
    4.3483    0.1987    0.7183 O   0  0  0  0  0  0  0  0  0  0  0  0
    3.7897   -0.3567   -0.4176 C   0  0  0  0  0  0  0  0  0  0  0  0
    3.4634    0.5450   -1.2735 O   0  0  0  0  0  0  0  0  0  0  0  0
    3.5782   -1.6559   -0.6768 N   0  0  0  0  0  0  0  0  0  0  0  0
    3.9269   -2.8083    0.2738 C   0  0  0  0  0  0  0  0  0  0  0  0
    3.1724   -4.1836   -0.3788 C   0  0  0  0  0  0  0  0  0  0  0  0
    1.9213   -3.3825   -1.1380 C   0  0  2  0  0  0  0  0  0  0  0  0
    2.9862   -2.2621   -1.9319 C   0  0  2  0  0  0  0  0  0  0  0  0
    4.1999   -3.2858   -1.9301 C   0  0  0  0  0  0  0  0  0  0  0  0
    4.0919   -3.3071   -0.7069 C   0  0  0  0  0  0  0  0  0  0  0  0
    2.8157   -2.7429    0.3363 C   0  0  0  0  0  0  0  0  0  0  0  0
    1.7583   -2.6495    0.1267 N   0  0  0  0  0  0  0  0  0  0  0  0
    0.7222   -2.0911    0.7614 C   0  0  0  0  0  0  0  0  0  0  0  0
    0.7535   -1.4852    1.8631 O   0  0  0  0  0  0  0  0  0  0  0  0
   -0.6223   -2.1084    0.2499 N   0  0  0  0  0  0  0  0  0  0  0  0
   -1.7566   -1.5630    0.8263 C   0  0  0  0  0  0  0  0  0  0  0  0
   -1.6319    0.0233    1.0395 C   0  0  1  0  0  0  0  0  0  0  0  0
   -1.4187    0.3981   -0.5371 C   0  0  0  0  0  0  0  0  0  0  0  0
   -1.4168    1.9315   -0.4479 C   0  0  0  0  0  0  0  0  0  0  0  0
   -2.8642    2.3316   -0.2484 C   0  0  0  0  0  0  0  0  0  0  0  0
   -3.3021    1.7000    0.9688 N   0  0  0  0  0  0  0  0  0  0  0  0
   -4.5665    2.2227    1.4392 C   0  0  0  0  0  0  0  0  0  0  0  0
   -5.5594    1.9845    0.4023 C   0  0  0  0  0  0  0  0  0  0  0  0
   -6.2914    0.8319    0.3783 C   0  0  0  0  0  0  0  0  0  0  0  0
   -7.2446    0.5757   -0.5964 C   0  0  0  0  0  0  0  0  0  0  0  0
   -7.4567    1.5091   -1.5637 C   0  0  0  0  0  0  0  0  0  0  0  0
   -6.7469    2.6700   -1.5731 C   0  0  0  0  0  0  0  0  0  0  0  0
   -5.8056    2.8921   -0.5873 C   0  0  0  0  0  0  0  0  0  0  0  0
   -3.2421    0.2735    0.9495 C   0  0  0  0  0  0  0  0  0  0  0  0
  1  2  1  0
  2  3  1  0
  2  4  1  0
  2  5  1  0
  5  6  1  0
  6  7  2  0
  6  8  1  0
  8  9  1  0
  9 10  1  0
 11 10  1  1
 11 12  1  0
 12 13  1  6
 13 14  1  0
 14 15  1  0
 15 16  1  0
 16 17  1  0
 17 18  2  0
 17 19  1  0
 19 20  1  0
 21 20  1  6
 21 22  1  0
 22 23  1  0
 23 24  1  0
 24 25  1  0
 25 26  1  0
 26 27  1  0
 27 28  2  0
 28 29  1  0
 29 30  2  0
 30 31  1  0
 31 32  2  0
 25 33  1  0
 12  8  1  0
 33 21  1  0
 16 11  1  0
 32 27  1  0
M  END
>  <zinc_id>  (1) 
ZINC001667676407

>  <smiles>  (1) 
CC(C)(C)OC(=O)N1CC[C@@H]2[C@@H]1CCCN2C(=O)NC[C@H]1CCCN(Cc2ccccc2)C1

$$$$
