
     RDKit          3D

 29 31  0  0  0  0  0  0  0  0999 V2000
    1.0148    0.3493    0.9580 O   0  0  0  0  0  0  0  0  0  0  0  0
    1.1679   -0.7387    0.3937 C   0  0  0  0  0  0  0  0  0  0  0  0
    1.8276   -1.7585    1.1031 N   0  0  0  0  0  0  0  0  0  0  0  0
    2.4074   -1.8440    2.3369 C   0  0  0  0  0  0  0  0  0  0  0  0
    3.5402   -1.1387    2.7618 C   0  0  0  0  0  0  0  0  0  0  0  0
    3.7866    0.2806    2.8357 C   0  0  0  0  0  0  0  0  0  0  0  0
    3.7771    0.9790    1.6460 O   0  0  0  0  0  0  0  0  0  0  0  0
    4.6749    0.6516    0.6400 C   0  0  0  0  0  0  0  0  0  0  0  0
    4.6739    1.3384   -0.5445 C   0  0  0  0  0  0  0  0  0  0  0  0
    5.5589    1.0245   -1.5512 C   0  0  0  0  0  0  0  0  0  0  0  0
    6.4590   -0.0024   -1.3530 C   0  0  0  0  0  0  0  0  0  0  0  0
    6.4964   -0.7185   -0.1817 C   0  0  0  0  0  0  0  0  0  0  0  0
    7.3577   -1.7203    0.0413 F   0  0  0  0  0  0  0  0  0  0  0  0
    5.5903   -0.3686    0.8000 C   0  0  0  0  0  0  0  0  0  0  0  0
    0.6739   -0.8612   -0.8963 N   0  0  0  0  0  0  0  0  0  0  0  0
    0.0226   -0.1547   -1.8243 C   0  0  0  0  0  0  0  0  0  0  0  0
   -1.4427    0.3824   -1.5464 C   0  0  2  0  0  0  0  0  0  0  0  0
   -1.0784    1.3017   -0.2883 C   0  0  0  0  0  0  0  0  0  0  0  0
   -2.1372    1.1379    0.7503 C   0  0  0  0  0  0  0  0  0  0  0  0
   -3.4622    0.7130    0.2310 C   0  0  0  0  0  0  0  0  0  0  0  0
   -3.3430   -0.6077   -0.3437 N   0  0  0  0  0  0  0  0  0  0  0  0
   -4.2126   -0.6823   -1.4958 C   0  0  0  0  0  0  0  0  0  0  0  0
   -5.6027   -0.4327   -1.0480 C   0  0  0  0  0  0  0  0  0  0  0  0
   -6.4401   -1.4332   -0.6434 C   0  0  0  0  0  0  0  0  0  0  0  0
   -7.7281   -1.1840   -0.2306 C   0  0  0  0  0  0  0  0  0  0  0  0
   -8.2139    0.1158   -0.2162 C   0  0  0  0  0  0  0  0  0  0  0  0
   -7.3439    1.1136   -0.6317 C   0  0  0  0  0  0  0  0  0  0  0  0
   -6.0573    0.8561   -1.0431 C   0  0  0  0  0  0  0  0  0  0  0  0
   -1.9670   -0.8890   -0.6598 C   0  0  0  0  0  0  0  0  0  0  0  0
  1  2  2  0
  2  3  1  0
  3  4  1  0
  4  5  1  0
  5  6  1  0
  6  7  1  0
  7  8  1  0
  8  9  2  0
  9 10  1  0
 10 11  2  0
 11 12  1  0
 12 13  1  0
 12 14  2  0
  2 15  1  0
 15 16  1  0
 17 16  1  1
 17 18  1  0
 18 19  1  0
 19 20  1  0
 20 21  1  0
 21 22  1  0
 22 23  1  0
 23 24  2  0
 24 25  1  0
 25 26  2  0
 26 27  1  0
 27 28  2  0
 21 29  1  0
 14  8  1  0
 29 17  1  0
 28 23  1  0
M  END
>  <zinc_id>  (1) 
ZINC001667676423

>  <smiles>  (1) 
O=C(NCCCOc1cccc(F)c1)NC[C@@H]1CCCN(Cc2ccccc2)C1

$$$$
