
     RDKit          3D

 22 23  0  0  0  0  0  0  0  0999 V2000
   -4.9773    2.9168    0.0833 C   0  0  0  0  0  0  0  0  0  0  0  0
   -4.9985    1.4270   -0.1474 C   0  0  0  0  0  0  0  0  0  0  0  0
   -3.5588    0.9892   -0.2559 C   0  0  0  0  0  0  0  0  0  0  0  0
   -3.6237   -0.6385   -0.5078 C   0  0  2  0  0  0  0  0  0  0  0  0
   -4.4154   -0.9255    0.9395 C   0  0  0  0  0  0  0  0  0  0  0  0
   -4.5679   -2.4258    0.8745 C   0  0  0  0  0  0  0  0  0  0  0  0
   -2.1863   -0.9616    0.0885 C   0  0  0  0  0  0  0  0  0  0  0  0
   -1.4862   -0.1440    0.6338 O   0  0  0  0  0  0  0  0  0  0  0  0
   -1.8110   -2.2900   -0.0805 N   0  0  0  0  0  0  0  0  0  0  0  0
   -0.4133   -2.7669    0.4527 C   0  0  1  0  0  0  0  0  0  0  0  0
    0.0156   -3.4601   -0.9889 C   0  0  0  0  0  0  0  0  0  0  0  0
    0.3788   -1.3556    0.1921 C   0  0  0  0  0  0  0  0  0  0  0  0
    0.3546   -0.9723   -1.2385 C   0  0  0  0  0  0  0  0  0  0  0  0
    1.7351   -0.5470   -1.0700 N   0  0  0  0  0  0  0  0  0  0  0  0
    1.6690    0.7605   -0.3911 C   0  0  0  0  0  0  0  0  0  0  0  0
    3.0393    1.2954   -0.1748 C   0  0  0  0  0  0  0  0  0  0  0  0
    4.1445    0.5549   -0.2532 N   0  0  0  0  0  0  0  0  0  0  0  0
    5.1877    1.3291   -0.0208 N   0  0  0  0  0  0  0  0  0  0  0  0
    4.7258    2.5690    0.2050 C   0  0  0  0  0  0  0  0  0  0  0  0
    5.5783    3.7381    0.5003 C   0  0  0  0  0  0  0  0  0  0  0  0
    3.3822    2.5452    0.1081 N   0  0  0  0  0  0  0  0  0  0  0  0
    1.8275   -1.6381   -0.0796 C   0  0  0  0  0  0  0  0  0  0  0  0
  1  2  1  0
  2  3  1  0
  4  3  1  1
  4  5  1  0
  5  6  1  0
  4  7  1  0
  7  8  2  0
  7  9  1  0
  9 10  1  0
 10 11  1  6
 10 12  1  0
 12 13  1  0
 13 14  1  0
 14 15  1  0
 15 16  1  0
 16 17  2  0
 17 18  1  0
 18 19  1  0
 19 20  1  0
 19 21  2  0
 14 22  1  0
 22 12  1  0
 21 16  1  0
M  END
>  <zinc_id>  (1) 
ZINC001485529956

>  <smiles>  (1) 
CCC[C@H](CC)C(=O)N[C@@H](C)C1CN(Cc2n[nH]c(C)n2)C1

$$$$
