
     RDKit          3D

 24 26  0  0  0  0  0  0  0  0999 V2000
   -3.6790   -1.1133   -2.3529 C   0  0  0  0  0  0  0  0  0  0  0  0
   -4.0839   -0.2843   -1.2309 C   0  0  0  0  0  0  0  0  0  0  0  0
   -4.8513    0.8303   -1.4536 N   0  0  0  0  0  0  0  0  0  0  0  0
   -5.1070    1.5724   -0.0343 S   0  0  0  0  0  0  0  0  0  0  0  0
   -4.1975    0.4996    1.0379 C   0  0  0  0  0  0  0  0  0  0  0  0
   -4.1535    0.5957    2.4965 C   0  0  0  0  0  0  0  0  0  0  0  0
   -3.7808   -0.3787    0.1190 C   0  0  0  0  0  0  0  0  0  0  0  0
   -2.8366   -1.5647    0.5018 C   0  0  0  0  0  0  0  0  0  0  0  0
   -1.7680   -0.9779    1.1497 N   0  0  0  0  0  0  0  0  0  0  0  0
   -1.5033   -0.1456    2.1728 C   0  0  0  0  0  0  0  0  0  0  0  0
   -0.5399    0.6791    1.3128 C   0  0  0  0  0  0  0  0  0  0  0  0
    0.9566   -0.0201    1.6666 C   0  0  1  0  0  0  0  0  0  0  0  0
    0.5572   -1.5679    1.0807 C   0  0  0  0  0  0  0  0  0  0  0  0
    1.5443    0.5546    0.3633 N   0  0  0  0  0  0  0  0  0  0  0  0
    1.6218   -0.0213   -0.8209 C   0  0  0  0  0  0  0  0  0  0  0  0
    1.2211   -1.2152   -1.0112 O   0  0  0  0  0  0  0  0  0  0  0  0
    2.1907    0.5972   -2.0165 C   0  0  0  0  0  0  0  0  0  0  0  0
    3.4934    1.3077   -1.6897 C   0  0  0  0  0  0  0  0  0  0  0  0
    4.4187    0.5134   -1.0071 N   0  0  0  0  0  0  0  0  0  0  0  0
    5.3127   -0.3890   -1.3423 C   0  0  0  0  0  0  0  0  0  0  0  0
    6.0783   -0.8289   -0.3297 C   0  0  0  0  0  0  0  0  0  0  0  0
    5.6269   -0.1235    0.8284 C   0  0  0  0  0  0  0  0  0  0  0  0
    4.5899    0.7113    0.3809 C   0  0  0  0  0  0  0  0  0  0  0  0
   -1.1105    0.0038    0.1788 C   0  0  0  0  0  0  0  0  0  0  0  0
  1  2  1  0
  2  3  2  0
  3  4  1  0
  4  5  1  0
  5  6  1  0
  5  7  2  0
  7  8  1  0
  8  9  1  0
  9 10  1  0
 10 11  1  0
 11 12  1  0
 12 13  1  6
 12 14  1  0
 14 15  1  0
 15 16  2  0
 15 17  1  0
 17 18  1  0
 18 19  1  0
 19 20  1  0
 20 21  2  0
 21 22  1  0
 22 23  2  0
 11 24  1  0
  7  2  1  0
 24  9  1  0
 23 19  1  0
M  END
>  <zinc_id>  (1) 
ZINC001485529934

>  <smiles>  (1) 
Cc1nsc(C)c1CN1CC([C@@H](C)NC(=O)CCn2cccc2)C1

$$$$
