
     RDKit          3D

 23 24  0  0  0  0  0  0  0  0999 V2000
   -6.3643    0.4037    2.1142 C   0  0  0  0  0  0  0  0  0  0  0  0
   -5.4817   -0.8371    1.8977 C   0  0  0  0  0  0  0  0  0  0  0  0
   -4.1265   -0.3561    1.5161 C   0  0  0  0  0  0  0  0  0  0  0  0
   -4.3390    0.4737    0.1521 C   0  0  2  0  0  0  0  0  0  0  0  0
   -4.9034   -0.7530   -0.7453 C   0  0  0  0  0  0  0  0  0  0  0  0
   -6.1492   -1.2916   -0.1770 C   0  0  0  0  0  0  0  0  0  0  0  0
   -2.8300    0.3609   -0.3652 C   0  0  0  0  0  0  0  0  0  0  0  0
   -1.9827   -0.2465    0.2634 O   0  0  0  0  0  0  0  0  0  0  0  0
   -2.4869    0.9712   -1.5621 N   0  0  0  0  0  0  0  0  0  0  0  0
   -1.0358    0.8897   -2.1122 C   0  0  2  0  0  0  0  0  0  0  0  0
   -0.6295   -0.5103   -1.3615 C   0  0  0  0  0  0  0  0  0  0  0  0
   -0.3933    1.9527   -1.0489 C   0  0  0  0  0  0  0  0  0  0  0  0
    1.0898    1.9705   -1.5068 C   0  0  0  0  0  0  0  0  0  0  0  0
    1.1747    0.7564   -0.7866 N   0  0  0  0  0  0  0  0  0  0  0  0
    2.3275    0.1460   -0.3721 C   0  0  0  0  0  0  0  0  0  0  0  0
    3.1841    0.7414    0.6733 C   0  0  0  0  0  0  0  0  0  0  0  0
    4.3394   -0.1783    0.8841 C   0  0  0  0  0  0  0  0  0  0  0  0
    4.3523   -1.2086    1.7963 C   0  0  0  0  0  0  0  0  0  0  0  0
    5.4566   -2.0357    1.9452 C   0  0  0  0  0  0  0  0  0  0  0  0
    6.5666   -1.8229    1.1619 C   0  0  0  0  0  0  0  0  0  0  0  0
    6.5506   -0.7911    0.2494 C   0  0  0  0  0  0  0  0  0  0  0  0
    5.4540    0.0194    0.1125 C   0  0  0  0  0  0  0  0  0  0  0  0
    0.2267    1.3455    0.1361 C   0  0  0  0  0  0  0  0  0  0  0  0
  1  2  1  0
  2  3  1  0
  4  3  1  1
  4  5  1  0
  5  6  1  0
  4  7  1  0
  7  8  2  0
  7  9  1  0
  9 10  1  0
 10 11  1  1
 10 12  1  0
 12 13  1  0
 13 14  1  0
 14 15  1  0
 15 16  1  0
 16 17  1  0
 17 18  2  0
 18 19  1  0
 19 20  2  0
 20 21  1  0
 21 22  2  0
 14 23  1  0
 23 12  1  0
 22 17  1  0
M  END
>  <zinc_id>  (1) 
ZINC001485529936

>  <smiles>  (1) 
CCC[C@H](CC)C(=O)N[C@H](C)C1CN(CCc2ccccc2)C1

$$$$
