
     RDKit          3D

 29 32  0  0  0  0  0  0  0  0999 V2000
    8.7242   -0.9199   -2.2068 C   0  0  0  0  0  0  0  0  0  0  0  0
    7.3601   -0.5594   -1.6852 C   0  0  0  0  0  0  0  0  0  0  0  0
    6.9136   -1.1566   -0.5231 C   0  0  0  0  0  0  0  0  0  0  0  0
    5.6665   -0.8523   -0.0028 C   0  0  0  0  0  0  0  0  0  0  0  0
    4.8431    0.0471   -0.6276 C   0  0  0  0  0  0  0  0  0  0  0  0
    3.5155    0.4472   -0.0973 C   0  0  0  0  0  0  0  0  0  0  0  0
    2.6988   -0.6172    0.4654 N   0  0  0  0  0  0  0  0  0  0  0  0
    1.4447   -0.1889    0.9856 C   0  0  0  0  0  0  0  0  0  0  0  0
    1.1391    1.0367    0.9335 O   0  0  0  0  0  0  0  0  0  0  0  0
    0.4848   -1.0764    1.5886 N   0  0  0  0  0  0  0  0  0  0  0  0
   -0.7576   -0.5089    2.1343 C   0  0  0  0  0  0  0  0  0  0  0  0
   -1.4489    0.2136    0.8658 C   0  0  1  0  0  0  0  0  0  0  0  0
   -1.5896   -1.1555   -0.0051 C   0  0  0  0  0  0  0  0  0  0  0  0
   -2.9203   -0.9873   -0.7406 C   0  0  0  0  0  0  0  0  0  0  0  0
   -3.2861    0.5075   -0.8413 C   0  0  0  0  0  0  0  0  0  0  0  0
   -3.6403    0.9145    0.4802 N   0  0  0  0  0  0  0  0  0  0  0  0
   -4.9508    1.3245    0.7221 C   0  0  0  0  0  0  0  0  0  0  0  0
   -6.0256    0.3827    0.4382 C   0  0  0  0  0  0  0  0  0  0  0  0
   -5.8433   -0.8997   -0.0682 C   0  0  0  0  0  0  0  0  0  0  0  0
   -6.9560   -1.6967   -0.2897 C   0  0  0  0  0  0  0  0  0  0  0  0
   -8.2250   -1.2530   -0.0260 C   0  0  0  0  0  0  0  0  0  0  0  0
   -8.4146    0.0088    0.4723 C   0  0  0  0  0  0  0  0  0  0  0  0
   -7.3273    0.8036    0.6955 C   0  0  0  0  0  0  0  0  0  0  0  0
   -2.9635    0.1210    1.4668 C   0  0  0  0  0  0  0  0  0  0  0  0
    3.6962    1.5419    0.9769 C   0  0  0  0  0  0  0  0  0  0  0  0
    3.2714    2.5503   -0.0741 C   0  0  0  0  0  0  0  0  0  0  0  0
    2.7594    1.4144   -0.9252 C   0  0  0  0  0  0  0  0  0  0  0  0
    5.2973    0.6434   -1.7973 C   0  0  0  0  0  0  0  0  0  0  0  0
    6.5343    0.3431   -2.3149 C   0  0  0  0  0  0  0  0  0  0  0  0
  1  2  1  0
  2  3  2  0
  3  4  1  0
  4  5  2  0
  5  6  1  0
  6  7  1  0
  7  8  1  0
  8  9  2  0
  8 10  1  0
 10 11  1  0
 12 11  1  1
 12 13  1  0
 13 14  1  0
 14 15  1  0
 15 16  1  0
 16 17  1  0
 17 18  1  0
 18 19  2  0
 19 20  1  0
 20 21  2  0
 21 22  1  0
 22 23  2  0
 16 24  1  0
  6 25  1  0
 25 26  1  0
 26 27  1  0
  5 28  1  0
 28 29  2  0
 29  2  1  0
 27  6  1  0
 24 12  1  0
 23 18  1  0
M  END
>  <zinc_id>  (1) 
ZINC001667676443

>  <smiles>  (1) 
Cc1ccc(C2(NC(=O)NC[C@H]3CCCN(Cc4ccccc4)C3)CCC2)cc1

$$$$
