
     RDKit          3D

 20 21  0  0  0  0  0  0  0  0999 V2000
   -4.5920   -2.3445   -0.1074 C   0  0  0  0  0  0  0  0  0  0  0  0
   -4.4050   -0.9146   -0.5973 C   0  0  0  0  0  0  0  0  0  0  0  0
   -4.7079   -0.5865   -1.8193 N   0  0  0  0  0  0  0  0  0  0  0  0
   -4.5410    0.6541   -2.2319 C   0  0  0  0  0  0  0  0  0  0  0  0
   -3.9247    1.4238   -0.8441 S   0  0  0  0  0  0  0  0  0  0  0  0
   -3.9138    0.0850    0.2137 C   0  0  0  0  0  0  0  0  0  0  0  0
   -3.5067   -0.0272    1.6480 C   0  0  0  0  0  0  0  0  0  0  0  0
   -2.1868   -0.7215    1.7166 C   0  0  0  0  0  0  0  0  0  0  0  0
   -1.1279    0.0424    0.9786 C   0  0  0  0  0  0  0  0  0  0  0  0
   -1.4020    1.1072    0.3781 O   0  0  0  0  0  0  0  0  0  0  0  0
    0.1970   -0.4862    0.9846 N   0  0  0  0  0  0  0  0  0  0  0  0
    1.1677    0.4192    0.1711 C   0  0  1  0  0  0  0  0  0  0  0  0
    0.9511    1.7240    1.1314 C   0  0  0  0  0  0  0  0  0  0  0  0
    2.4980   -0.0849    1.0213 C   0  0  0  0  0  0  0  0  0  0  0  0
    3.5982    0.7187    0.3484 C   0  0  0  0  0  0  0  0  0  0  0  0
    4.0639   -0.4572   -0.3283 N   0  0  0  0  0  0  0  0  0  0  0  0
    5.4516   -0.7338   -0.0290 C   0  0  0  0  0  0  0  0  0  0  0  0
    6.3077    0.3113   -0.6258 C   0  0  0  0  0  0  0  0  0  0  0  0
    6.9812    1.1344   -1.1090 N   0  0  0  0  0  0  0  0  0  0  0  0
    3.0913   -1.2637    0.3245 C   0  0  0  0  0  0  0  0  0  0  0  0
  1  2  1  0
  2  3  1  0
  3  4  2  0
  4  5  1  0
  5  6  1  0
  6  7  1  0
  7  8  1  0
  8  9  1  0
  9 10  2  0
  9 11  1  0
 11 12  1  0
 12 13  1  1
 12 14  1  0
 14 15  1  0
 15 16  1  0
 16 17  1  0
 17 18  1  0
 18 19  3  0
 16 20  1  0
  6  2  2  0
 20 14  1  0
M  END
>  <zinc_id>  (1) 
ZINC001485529960

>  <smiles>  (1) 
Cc1ncsc1CCC(=O)N[C@@H](C)C1CN(CC#N)C1

$$$$
