
     RDKit          3D

 22 23  0  0  0  0  0  0  0  0999 V2000
   -7.3574    0.8482   -1.3517 C   0  0  0  0  0  0  0  0  0  0  0  0
   -6.7614   -0.3036   -0.5312 C   0  0  0  0  0  0  0  0  0  0  0  0
   -7.6441   -0.4642    0.6807 C   0  0  0  0  0  0  0  0  0  0  0  0
   -5.3534    0.1795   -0.1613 C   0  0  0  0  0  0  0  0  0  0  0  0
   -4.6774    0.4023   -1.3405 O   0  0  0  0  0  0  0  0  0  0  0  0
   -3.4002    0.8535   -1.0531 C   0  0  0  0  0  0  0  0  0  0  0  0
   -2.7086   -0.2240   -0.2374 C   0  0  0  0  0  0  0  0  0  0  0  0
   -1.4077    0.2554    0.0425 N   0  0  0  0  0  0  0  0  0  0  0  0
   -0.5045   -0.5794    0.8139 C   0  0  0  0  0  0  0  0  0  0  0  0
    0.2090    0.7610    1.1008 C   0  0  0  0  0  0  0  0  0  0  0  0
    0.5279    1.2411   -0.4481 C   0  0  1  0  0  0  0  0  0  0  0  0
    1.2493    2.6161    0.0505 C   0  0  0  0  0  0  0  0  0  0  0  0
    1.7834    0.3532   -0.5870 N   0  0  0  0  0  0  0  0  0  0  0  0
    2.9128    0.5468    0.2010 C   0  0  0  0  0  0  0  0  0  0  0  0
    2.7796    1.5060    1.0106 O   0  0  0  0  0  0  0  0  0  0  0  0
    4.1344   -0.2055    0.1689 C   0  0  0  0  0  0  0  0  0  0  0  0
    5.1659    0.0891    0.9365 N   0  0  0  0  0  0  0  0  0  0  0  0
    6.3222   -0.6268    0.9068 C   0  0  0  0  0  0  0  0  0  0  0  0
    6.4126   -1.6994    0.0407 C   0  0  0  0  0  0  0  0  0  0  0  0
    5.3574   -2.0037   -0.7464 C   0  0  0  0  0  0  0  0  0  0  0  0
    4.2348   -1.2584   -0.6755 N   0  0  0  0  0  0  0  0  0  0  0  0
   -1.2744    1.1897    1.1793 C   0  0  0  0  0  0  0  0  0  0  0  0
  1  2  1  0
  2  3  1  0
  2  4  1  0
  4  5  1  0
  5  6  1  0
  6  7  1  0
  7  8  1  0
  8  9  1  0
  9 10  1  0
 10 11  1  0
 11 12  1  1
 11 13  1  0
 13 14  1  0
 14 15  2  0
 14 16  1  0
 16 17  2  0
 17 18  1  0
 18 19  2  0
 19 20  1  0
 20 21  2  0
 10 22  1  0
 22  8  1  0
 21 16  1  0
M  END
>  <zinc_id>  (1) 
ZINC001485529980

>  <smiles>  (1) 
CC(C)COCCN1CC([C@@H](C)NC(=O)c2ncccn2)C1

$$$$
