
     RDKit          3D

 23 25  0  0  0  0  0  0  0  0999 V2000
   -0.0021    1.7420    0.8189 C   0  0  0  0  0  0  0  0  0  0  0  0
   -0.2645    2.0171   -0.7888 C   0  0  2  0  0  0  0  0  0  0  0  0
   -1.0609    0.6488   -0.9964 N   0  0  0  0  0  0  0  0  0  0  0  0
   -2.2348    0.4648   -0.2973 C   0  0  0  0  0  0  0  0  0  0  0  0
   -2.6298    1.3704    0.4557 O   0  0  0  0  0  0  0  0  0  0  0  0
   -3.0814   -0.7361   -0.3638 C   0  0  0  0  0  0  0  0  0  0  0  0
   -2.7017   -1.7832   -1.1567 N   0  0  0  0  0  0  0  0  0  0  0  0
   -3.6756   -2.7134   -0.9948 C   0  0  0  0  0  0  0  0  0  0  0  0
   -4.5633   -2.2447   -0.1662 O   0  0  0  0  0  0  0  0  0  0  0  0
   -4.2422   -1.0388    0.2455 C   0  0  0  0  0  0  0  0  0  0  0  0
   -4.9459   -0.1309    1.1813 C   0  0  0  0  0  0  0  0  0  0  0  0
   -6.3012   -0.7385    1.6480 C   0  0  0  0  0  0  0  0  0  0  0  0
   -5.1351   -0.7276    2.5945 C   0  0  0  0  0  0  0  0  0  0  0  0
    1.1317    1.3638   -1.3415 C   0  0  0  0  0  0  0  0  0  0  0  0
    2.2176    2.1906   -0.6438 C   0  0  0  0  0  0  0  0  0  0  0  0
    2.8778    0.9721   -0.2100 N   0  0  0  0  0  0  0  0  0  0  0  0
    3.2538    0.8752    1.1672 C   0  0  0  0  0  0  0  0  0  0  0  0
    3.8054   -0.5140    1.4019 C   0  0  0  0  0  0  0  0  0  0  0  0
    4.9826   -0.6716    0.4751 C   0  0  0  0  0  0  0  0  0  0  0  0
    6.0248    0.3437    0.7633 C   0  0  0  0  0  0  0  0  0  0  0  0
    7.2016    0.1497   -0.1934 C   0  0  0  0  0  0  0  0  0  0  0  0
    7.7084   -1.1322    0.0024 F   0  0  0  0  0  0  0  0  0  0  0  0
    1.6351    0.2929   -0.4555 C   0  0  0  0  0  0  0  0  0  0  0  0
  2  1  1  1
  2  3  1  0
  3  4  1  0
  4  5  2  0
  4  6  1  0
  6  7  1  0
  7  8  2  0
  8  9  1  0
  9 10  1  0
 10 11  1  0
 11 12  1  0
 12 13  1  0
  2 14  1  0
 14 15  1  0
 15 16  1  0
 16 17  1  0
 17 18  1  0
 18 19  1  0
 19 20  1  0
 20 21  1  0
 21 22  1  0
 16 23  1  0
 10  6  2  0
 13 11  1  0
 23 14  1  0
M  END
>  <zinc_id>  (1) 
ZINC001485529987

>  <smiles>  (1) 
C[C@H](NC(=O)c1ncoc1C1CC1)C1CN(CCCCCF)C1

$$$$
