REMARK  Name = 
REMARK  7 active torsions:
REMARK  status: ('A' for Active; 'I' for Inactive)
REMARK    1  A    between atoms: C_7  and  C_8
REMARK    2  A    between atoms: C_8  and  N_9
REMARK    3  A    between atoms: C_11  and  C_12
REMARK    4  A    between atoms: C_12  and  N_14
REMARK    5  A    between atoms: C_15  and  C_17
REMARK    6  A    between atoms: C_17  and  C_18
REMARK    7  A    between atoms: C_18  and  N_19
REMARK                            x       y       z     vdW  Elec       q    Type
REMARK                         _______ _______ _______ _____ _____    ______ ____
ROOT
ATOM      1  N   UNL     1      -1.768  -0.978   1.150  0.00  0.00    -0.269 NA
ATOM      2  C   UNL     1      -1.111   0.004   0.179  0.00  0.00    +0.075 C 
ATOM      3  C   UNL     1      -0.540   0.679   1.313  0.00  0.00    +0.052 C 
ATOM      4  C   UNL     1      -1.503  -0.146   2.173  0.00  0.00    +0.075 C 
ENDROOT
BRANCH   3   5
ATOM      5  C   UNL     1       0.957  -0.020   1.667  0.00  0.00    +0.098 C 
ATOM      6  C   UNL     1       0.557  -1.568   1.081  0.00  0.00    +0.024 C 
BRANCH   5   7
ATOM      7  N   UNL     1       1.544   0.555   0.363  0.00  0.00    -0.207 NA
ATOM      8  C   UNL     1       1.622  -0.021  -0.821  0.00  0.00    +0.243 C 
ATOM      9  O   UNL     1       1.221  -1.215  -1.011  0.00  0.00    -0.273 OA
BRANCH   8  10
ATOM     10  C   UNL     1       2.191   0.597  -2.017  0.00  0.00    +0.111 C 
BRANCH  10  11
ATOM     11  C   UNL     1       3.493   1.308  -1.690  0.00  0.00    +0.116 C 
BRANCH  11  12
ATOM     12  N   UNL     1       4.419   0.513  -1.007  0.00  0.00    -0.324 N 
ATOM     13  C   UNL     1       4.590   0.711   0.381  0.00  0.00    +0.076 A 
ATOM     14  C   UNL     1       5.627  -0.124   0.828  0.00  0.00    +0.020 A 
ATOM     15  C   UNL     1       6.078  -0.829  -0.330  0.00  0.00    +0.020 A 
ATOM     16  C   UNL     1       5.313  -0.389  -1.342  0.00  0.00    +0.076 A 
ENDBRANCH  11  12
ENDBRANCH  10  11
ENDBRANCH   8  10
ENDBRANCH   5   7
ENDBRANCH   3   5
BRANCH   1  17
ATOM     17  C   UNL     1      -2.837  -1.565   0.502  0.00  0.00    +0.101 C 
BRANCH  17  20
ATOM     18  C   UNL     1      -3.679  -1.113  -2.353  0.00  0.00    +0.052 C 
ATOM     19  C   UNL     1      -4.084  -0.284  -1.231  0.00  0.00    +0.065 A 
ATOM     20  C   UNL     1      -3.781  -0.379   0.119  0.00  0.00    +0.011 A 
ATOM     21  C   UNL     1      -4.197   0.500   1.038  0.00  0.00    +0.024 A 
ATOM     22  C   UNL     1      -4.154   0.596   2.497  0.00  0.00    +0.039 C 
ATOM     23  S   UNL     1      -5.107   1.572  -0.034  0.00  0.00    +0.008 S 
ATOM     24  N   UNL     1      -4.851   0.830  -1.454  0.00  0.00    -0.214 NA
ENDBRANCH  17  20
ENDBRANCH   1  17
TORSDOF 7
