REMARK  Name = 
REMARK  6 active torsions:
REMARK  status: ('A' for Active; 'I' for Inactive)
REMARK    1  A    between atoms: C_6  and  C_7
REMARK    2  A    between atoms: C_10  and  C_11
REMARK    3  A    between atoms: C_11  and  C_12
REMARK    4  A    between atoms: N_18  and  C_19
REMARK    5  A    between atoms: C_19  and  C_20
REMARK    6  A    between atoms: C_20  and  N_22
REMARK                            x       y       z     vdW  Elec       q    Type
REMARK                         _______ _______ _______ _____ _____    ______ ____
ROOT
ATOM      1  C   UNL     1       1.029  -2.203  -2.223  0.00  0.00    +0.013 C 
ATOM      2  C   UNL     1      -0.257  -1.974  -2.992  0.00  0.00    +0.022 C 
ATOM      3  C   UNL     1      -0.930  -0.770  -2.367  0.00  0.00    +0.095 C 
ATOM      4  N   UNL     1      -1.085  -0.989  -0.967  0.00  0.00    -0.263 N 
ATOM      5  C   UNL     1      -2.364  -0.744  -0.391  0.00  0.00    +0.323 C 
ATOM      6  N   UNL     1      -2.634  -0.923   0.969  0.00  0.00    -0.187 NA
ATOM      7  O   UNL     1      -3.331  -0.342  -1.125  0.00  0.00    -0.251 OA
ATOM      8  C   UNL     1       0.001  -1.440  -0.155  0.00  0.00    +0.095 C 
ATOM      9  C   UNL     1       0.683  -2.620  -0.809  0.00  0.00    +0.022 C 
ENDROOT
BRANCH   1  10
ATOM     10  C   UNL     1       1.750  -0.876  -2.121  0.00  0.00    +0.088 C 
BRANCH  10  13
ATOM     11  C   UNL     1       4.856  -0.414  -0.290  0.00  0.00    +0.221 A 
ATOM     12  N   UNL     1       3.826   0.015  -1.051  0.00  0.00    -0.189 NA
ATOM     13  C   UNL     1       2.987  -0.998  -1.311  0.00  0.00    +0.237 A 
ATOM     14  O   UNL     1       3.496  -2.045  -0.715  0.00  0.00    -0.337 OA
ATOM     15  N   UNL     1       4.614  -1.721  -0.097  0.00  0.00    -0.054 NA
BRANCH  11  19
ATOM     16  C   UNL     1       7.305   3.920   0.102  0.00  0.00    +0.031 C 
ATOM     17  C   UNL     1       7.189   2.462   0.415  0.00  0.00    -0.019 A 
ATOM     18  C   UNL     1       6.118   1.720  -0.061  0.00  0.00    +0.018 A 
ATOM     19  C   UNL     1       5.981   0.375   0.209  0.00  0.00    +0.120 A 
ATOM     20  N   UNL     1       6.934  -0.188   0.957  0.00  0.00    -0.241 NA
ATOM     21  C   UNL     1       7.989   0.495   1.439  0.00  0.00    +0.099 A 
ATOM     22  C   UNL     1       8.153   1.843   1.185  0.00  0.00    +0.016 A 
ENDBRANCH  11  19
ENDBRANCH  10  13
ENDBRANCH   1  10
BRANCH   6  23
ATOM     23  C   UNL     1      -3.786  -0.738   1.699  0.00  0.00    +0.133 C 
BRANCH  23  24
ATOM     24  C   UNL     1      -4.294   0.811   1.655  0.00  0.00    +0.079 C 
ATOM     25  C   UNL     1      -5.593   0.489   2.675  0.00  0.00    +0.019 C 
BRANCH  24  26
ATOM     26  N   UNL     1      -5.155   0.629   0.348  0.00  0.00    -0.272 NA
ATOM     27  C   UNL     1      -6.122  -0.366   0.520  0.00  0.00    +0.072 C 
ATOM     28  C   UNL     1      -7.488  -0.054  -0.035  0.00  0.00    +0.017 C 
ATOM     29  C   UNL     1      -8.090   1.009   0.859  0.00  0.00    +0.003 C 
ATOM     30  C   UNL     1      -9.031   1.825   0.018  0.00  0.00    +0.000 C 
ATOM     31  C   UNL     1      -6.943   1.890   1.310  0.00  0.00    +0.017 C 
ATOM     32  C   UNL     1      -5.810   1.924   0.306  0.00  0.00    +0.072 C 
ENDBRANCH  24  26
ENDBRANCH  23  24
ENDBRANCH   6  23
TORSDOF 6
