REMARK  Name = 
REMARK  8 active torsions:
REMARK  status: ('A' for Active; 'I' for Inactive)
REMARK    1  A    between atoms: C_2  and  C_3
REMARK    2  A    between atoms: C_3  and  C_5
REMARK    3  A    between atoms: C_5  and  N_6
REMARK    4  A    between atoms: C_8  and  C_9
REMARK    5  A    between atoms: C_9  and  N_11
REMARK    6  A    between atoms: C_12  and  C_14
REMARK    7  A    between atoms: C_14  and  C_15
REMARK    8  A    between atoms: C_20  and  N_21
REMARK                            x       y       z     vdW  Elec       q    Type
REMARK                         _______ _______ _______ _____ _____    ______ ____
ROOT
ATOM      1  N   UNL     1       0.664   1.334  -1.515  0.00  0.00    -0.207 NA
ATOM      2  C   UNL     1      -0.539   1.385  -0.766  0.00  0.00    +0.246 C 
ATOM      3  O   UNL     1      -0.468   1.025   0.434  0.00  0.00    -0.273 OA
ENDROOT
BRANCH   1   4
ATOM      4  C   UNL     1       1.934   0.827  -0.715  0.00  0.00    +0.098 C 
ATOM      5  C   UNL     1       2.972   1.248  -1.939  0.00  0.00    +0.024 C 
BRANCH   4   8
ATOM      6  N   UNL     1       3.104  -1.451   0.169  0.00  0.00    -0.270 NA
ATOM      7  C   UNL     1       1.670  -1.562   0.025  0.00  0.00    +0.075 C 
ATOM      8  C   UNL     1       1.766  -0.737  -1.270  0.00  0.00    +0.052 C 
ATOM      9  C   UNL     1       3.167  -1.341  -1.249  0.00  0.00    +0.075 C 
BRANCH   6  10
ATOM     10  C   UNL     1       3.430  -0.458   1.041  0.00  0.00    +0.108 C 
BRANCH  10  11
ATOM     11  C   UNL     1       5.061  -0.148   1.014  0.00  0.00    +0.177 C 
ATOM     12  F   UNL     1       5.274  -0.453  -0.470  0.00  0.00    -0.236 F 
BRANCH  11  14
ATOM     13  C   UNL     1       4.799  -2.711   0.941  0.00  0.00    +0.003 C 
ATOM     14  C   UNL     1       5.583  -1.662   1.487  0.00  0.00    +0.037 C 
ENDBRANCH  11  14
ENDBRANCH  10  11
ENDBRANCH   6  10
ENDBRANCH   4   8
ENDBRANCH   1   4
BRANCH   2  15
ATOM     15  C   UNL     1      -1.842   1.845  -1.365  0.00  0.00    +0.114 C 
BRANCH  15  16
ATOM     16  C   UNL     1      -2.866   1.784  -0.317  0.00  0.00    +0.002 A 
ATOM     17  C   UNL     1      -3.382   0.567   0.039  0.00  0.00    +0.070 A 
ATOM     18  C   UNL     1      -4.349   0.491   1.031  0.00  0.00    +0.016 A 
ATOM     19  C   UNL     1      -4.788   1.636   1.656  0.00  0.00    +0.001 A 
ATOM     20  C   UNL     1      -4.272   2.874   1.302  0.00  0.00    -0.000 A 
ATOM     21  C   UNL     1      -3.312   2.940   0.316  0.00  0.00    -0.002 A 
BRANCH  17  22
ATOM     22  N   UNL     1      -2.905  -0.601  -0.632  0.00  0.00    -0.180 NA
ATOM     23  C   UNL     1      -3.446  -1.869  -0.234  0.00  0.00    +0.246 C 
ATOM     24  O   UNL     1      -4.296  -1.872   0.674  0.00  0.00    -0.273 OA
ATOM     25  C   UNL     1      -2.959  -3.092  -0.929  0.00  0.00    +0.097 C 
ENDBRANCH  17  22
ENDBRANCH  15  16
ENDBRANCH   2  15
TORSDOF 8
