REMARK  Name = 
REMARK  9 active torsions:
REMARK  status: ('A' for Active; 'I' for Inactive)
REMARK    1  A    between atoms: C_2  and  C_3
REMARK    2  A    between atoms: C_3  and  C_4
REMARK    3  A    between atoms: C_4  and  C_5
REMARK    4  A    between atoms: C_5  and  C_6
REMARK    5  A    between atoms: C_6  and  C_7
REMARK    6  A    between atoms: C_7  and  N_8
REMARK    7  A    between atoms: N_11  and  C_12
REMARK    8  A    between atoms: C_12  and  C_13
REMARK    9  A    between atoms: C_18  and  C_19
REMARK                            x       y       z     vdW  Elec       q    Type
REMARK                         _______ _______ _______ _____ _____    ______ ____
ROOT
ATOM      1  N   UNL     1       1.455  -0.577   0.505  0.00  0.00    -0.187 NA
ATOM      2  C   UNL     1       0.474   0.024  -0.458  0.00  0.00    +0.340 C 
ATOM      3  N   UNL     1      -0.700  -0.516  -0.673  0.00  0.00    -0.182 NA
ATOM      4  O   UNL     1       0.924   1.081  -1.009  0.00  0.00    -0.249 OA
ENDROOT
BRANCH   1   5
ATOM      5  C   UNL     1       2.679  -0.135   0.692  0.00  0.00    +0.117 C 
BRANCH   5   6
ATOM      6  C   UNL     1       3.195   1.250   0.854  0.00  0.00    +0.023 C 
BRANCH   6   7
ATOM      7  C   UNL     1       4.761   0.779   1.112  0.00  0.00    +0.002 C 
BRANCH   7   8
ATOM      8  C   UNL     1       4.890  -0.228  -0.147  0.00  0.00    +0.000 C 
BRANCH   8   9
ATOM      9  C   UNL     1       6.074  -1.099   0.072  0.00  0.00    +0.000 C 
BRANCH   9  11
ATOM     10  C   UNL     1       7.141   0.499   1.547  0.00  0.00    +0.000 C 
ATOM     11  C   UNL     1       7.345  -0.412   0.292  0.00  0.00    +0.000 C 
ENDBRANCH   9  11
ENDBRANCH   8   9
ENDBRANCH   7   8
ENDBRANCH   6   7
ENDBRANCH   5   6
ENDBRANCH   1   5
BRANCH   3  12
ATOM     12  C   UNL     1      -1.958  -0.510  -1.199  0.00  0.00    +0.143 C 
BRANCH  12  13
ATOM     13  C   UNL     1      -2.569   0.469  -0.125  0.00  0.00    +0.003 A 
ATOM     14  C   UNL     1      -3.726  -0.107   0.417  0.00  0.00    +0.069 A 
ATOM     15  C   UNL     1      -4.345   0.574   1.413  0.00  0.00    +0.004 A 
ATOM     16  C   UNL     1      -3.800   1.796   1.827  0.00  0.00    -0.000 A 
ATOM     17  C   UNL     1      -2.648   2.348   1.257  0.00  0.00    -0.000 A 
ATOM     18  C   UNL     1      -1.986   1.625   0.220  0.00  0.00    -0.003 A 
BRANCH  14  19
ATOM     19  C   UNL     1      -4.128  -1.459  -0.102  0.00  0.00    +0.418 C 
ATOM     20  F   UNL     1      -3.106  -2.214  -0.547  0.00  0.00    -0.166 F 
ATOM     21  F   UNL     1      -4.935  -1.112  -1.295  0.00  0.00    -0.166 F 
ATOM     22  F   UNL     1      -5.037  -2.074   0.693  0.00  0.00    -0.166 F 
ENDBRANCH  14  19
ENDBRANCH  12  13
ENDBRANCH   3  12
TORSDOF 9
