REMARK  Name = 
REMARK  7 active torsions:
REMARK  status: ('A' for Active; 'I' for Inactive)
REMARK    1  A    between atoms: O_2  and  C_3
REMARK    2  A    between atoms: C_3  and  C_5
REMARK    3  A    between atoms: C_10  and  N_11
REMARK    4  A    between atoms: N_14  and  C_15
REMARK    5  A    between atoms: C_15  and  C_16
REMARK    6  A    between atoms: N_20  and  C_21
REMARK    7  A    between atoms: C_21  and  C_22
REMARK                            x       y       z     vdW  Elec       q    Type
REMARK                         _______ _______ _______ _____ _____    ______ ____
ROOT
ATOM      1  N   UNL     1       1.676   0.323  -1.537  0.00  0.00    -0.189 NA
ATOM      2  C   UNL     1       0.599  -0.405  -1.008  0.00  0.00    +0.339 C 
ATOM      3  N   UNL     1      -0.773  -0.181  -1.322  0.00  0.00    -0.187 NA
ATOM      4  O   UNL     1       0.796  -1.352  -0.178  0.00  0.00    -0.249 OA
ENDROOT
BRANCH   1  11
ATOM      5  C   UNL     1       6.884   0.982  -0.253  0.00  0.00    +0.104 C 
ATOM      6  C   UNL     1       5.753   0.765  -1.290  0.00  0.00    +0.038 C 
ATOM      7  C   UNL     1       4.853   1.129  -0.095  0.00  0.00    +0.095 C 
ATOM      8  O   UNL     1       4.762   0.190   0.910  0.00  0.00    -0.358 OA
ATOM      9  C   UNL     1       3.459   0.237   1.400  0.00  0.00    +0.144 C 
ATOM     10  C   UNL     1       2.691  -0.530   0.407  0.00  0.00    +0.054 C 
ATOM     11  C   UNL     1       3.086  -0.061  -1.090  0.00  0.00    +0.102 C 
ATOM     12  C   UNL     1       3.514   1.481  -0.607  0.00  0.00    +0.049 C 
ATOM     13  C   UNL     1       5.914   2.058   0.257  0.00  0.00    +0.038 C 
BRANCH   5  14
ATOM     14  C   UNL     1       6.955  -0.282   0.513  0.00  0.00    +0.317 C 
ATOM     15  O   UNL     1       7.441  -0.367   1.666  0.00  0.00    -0.250 OA
BRANCH  14  17
ATOM     16  C   UNL     1       6.505  -2.723   0.661  0.00  0.00    +0.256 C 
ATOM     17  O   UNL     1       6.470  -1.506  -0.006  0.00  0.00    -0.444 OA
ENDBRANCH  14  17
ENDBRANCH   5  14
ENDBRANCH   1  11
BRANCH   3  18
ATOM     18  C   UNL     1      -1.815  -1.021  -0.702  0.00  0.00    +0.118 C 
BRANCH  18  19
ATOM     19  C   UNL     1      -3.160  -0.384  -1.343  0.00  0.00    +0.038 C 
ATOM     20  C   UNL     1      -4.124  -0.909  -0.161  0.00  0.00    +0.074 C 
ATOM     21  N   UNL     1      -4.077  -0.099   0.973  0.00  0.00    -0.269 NA
ATOM     22  C   UNL     1      -2.809   0.281   1.492  0.00  0.00    +0.072 C 
ATOM     23  C   UNL     1      -2.149   1.165   0.428  0.00  0.00    +0.017 C 
ATOM     24  C   UNL     1      -2.961   1.119  -0.783  0.00  0.00    +0.005 C 
BRANCH  21  25
ATOM     25  C   UNL     1      -5.016   1.002   0.857  0.00  0.00    +0.099 C 
BRANCH  25  26
ATOM     26  C   UNL     1      -6.267   0.455   0.267  0.00  0.00    -0.006 A 
ATOM     27  C   UNL     1      -7.173   1.198  -0.421  0.00  0.00    -0.003 A 
ATOM     28  C   UNL     1      -8.311   0.592  -0.943  0.00  0.00    -0.000 A 
ATOM     29  C   UNL     1      -8.555  -0.748  -0.788  0.00  0.00    -0.000 A 
ATOM     30  C   UNL     1      -7.650  -1.514  -0.094  0.00  0.00    -0.000 A 
ATOM     31  C   UNL     1      -6.517  -0.894   0.423  0.00  0.00    -0.003 A 
ENDBRANCH  25  26
ENDBRANCH  21  25
ENDBRANCH  18  19
ENDBRANCH   3  18
TORSDOF 7
