REMARK  Name = 
REMARK  7 active torsions:
REMARK  status: ('A' for Active; 'I' for Inactive)
REMARK    1  A    between atoms: C_2  and  C_3
REMARK    2  A    between atoms: C_3  and  N_4
REMARK    3  A    between atoms: C_7  and  N_8
REMARK    4  A    between atoms: C_10  and  C_11
REMARK    5  A    between atoms: C_11  and  N_13
REMARK    6  A    between atoms: C_14  and  C_16
REMARK    7  A    between atoms: C_16  and  C_17
REMARK                            x       y       z     vdW  Elec       q    Type
REMARK                         _______ _______ _______ _____ _____    ______ ____
ROOT
ATOM      1  N   UNL     1       1.523  -1.925  -0.845  0.00  0.00    -0.266 NA
ATOM      2  C   UNL     1       1.034  -1.339   0.336  0.00  0.00    +0.076 C 
ATOM      3  C   UNL     1       0.363  -2.550   0.763  0.00  0.00    +0.052 C 
ATOM      4  C   UNL     1       1.236  -3.203  -0.302  0.00  0.00    +0.076 C 
ENDROOT
BRANCH   1   8
ATOM      5  N   UNL     1       4.222   0.234  -0.359  0.00  0.00    -0.274 N 
ATOM      6  C   UNL     1       3.014  -0.082  -1.003  0.00  0.00    +0.240 C 
ATOM      7  O   UNL     1       2.100   0.618  -1.442  0.00  0.00    -0.273 OA
ATOM      8  C   UNL     1       3.039  -1.679  -1.070  0.00  0.00    +0.137 C 
ATOM      9  C   UNL     1       3.466  -1.772   0.510  0.00  0.00    +0.047 C 
ATOM     10  C   UNL     1       4.685  -0.909   0.411  0.00  0.00    +0.096 C 
BRANCH   5  11
ATOM     11  C   UNL     1       4.892   1.505  -0.452  0.00  0.00    +0.120 C 
BRANCH  11  13
ATOM     12  C   UNL     1       5.307   2.967   1.498  0.00  0.00    -0.003 C 
ATOM     13  C   UNL     1       4.455   2.445   0.608  0.00  0.00    -0.005 C 
ENDBRANCH  11  13
ENDBRANCH   5  11
ENDBRANCH   1   8
BRANCH   3  14
ATOM     14  C   UNL     1      -1.159  -2.725   0.188  0.00  0.00    +0.098 C 
ATOM     15  C   UNL     1      -0.933  -1.901  -1.190  0.00  0.00    +0.024 C 
BRANCH  14  16
ATOM     16  N   UNL     1      -1.728  -1.535   0.995  0.00  0.00    -0.207 NA
ATOM     17  C   UNL     1      -2.597  -0.603   0.421  0.00  0.00    +0.248 C 
ATOM     18  O   UNL     1      -2.929  -0.726  -0.785  0.00  0.00    -0.273 OA
BRANCH  17  19
ATOM     19  C   UNL     1      -3.137   0.527   1.207  0.00  0.00    +0.137 C 
BRANCH  19  20
ATOM     20  C   UNL     1      -4.077   1.345   0.485  0.00  0.00    +0.126 A 
ATOM     21  C   UNL     1      -3.839   2.248  -0.497  0.00  0.00    +0.118 A 
ATOM     22  C   UNL     1      -2.561   2.648  -1.136  0.00  0.00    +0.057 C 
ATOM     23  N   UNL     1      -5.029   2.800  -0.881  0.00  0.00    -0.053 NA
ATOM     24  O   UNL     1      -5.914   2.251  -0.161  0.00  0.00    -0.242 OA
ATOM     25  N   UNL     1      -5.434   1.362   0.690  0.00  0.00    -0.053 NA
ENDBRANCH  19  20
ENDBRANCH  17  19
ENDBRANCH  14  16
ENDBRANCH   3  14
TORSDOF 7
