REMARK  Name = 
REMARK  5 active torsions:
REMARK  status: ('A' for Active; 'I' for Inactive)
REMARK    1  A    between atoms: C_2  and  C_3
REMARK    2  A    between atoms: N_15  and  C_16
REMARK    3  A    between atoms: C_16  and  C_17
REMARK    4  A    between atoms: N_21  and  C_22
REMARK    5  A    between atoms: C_22  and  C_23
REMARK                            x       y       z     vdW  Elec       q    Type
REMARK                         _______ _______ _______ _____ _____    ______ ____
ROOT
ATOM      1  C   UNL     1       3.301  -1.631  -0.823  0.00  0.00    +0.006 C 
ATOM      2  C   UNL     1       4.162  -0.417  -1.307  0.00  0.00    +0.039 C 
ATOM      3  C   UNL     1       3.210   0.811  -1.077  0.00  0.00    +0.099 C 
ATOM      4  N   UNL     1       2.051  -0.013  -1.580  0.00  0.00    -0.263 N 
ATOM      5  C   UNL     1       0.981  -0.246  -0.748  0.00  0.00    +0.323 C 
ATOM      6  N   UNL     1      -0.132  -1.150  -0.975  0.00  0.00    -0.188 NA
ATOM      7  O   UNL     1       0.897   0.352   0.362  0.00  0.00    -0.251 OA
ATOM      8  C   UNL     1       2.533  -0.405  -2.886  0.00  0.00    +0.095 C 
ATOM      9  C   UNL     1       4.099  -0.458  -2.723  0.00  0.00    +0.027 C 
ENDROOT
BRANCH   2  10
ATOM     10  C   UNL     1       5.217  -0.353  -0.389  0.00  0.00    -0.019 A 
ATOM     11  C   UNL     1       6.552  -0.552  -0.471  0.00  0.00    +0.025 A 
ATOM     12  C   UNL     1       7.345  -0.452   0.674  0.00  0.00    +0.140 A 
ATOM     13  F   UNL     1       8.693  -0.652   0.642  0.00  0.00    -0.204 F 
ATOM     14  C   UNL     1       6.809  -0.151   1.898  0.00  0.00    +0.030 A 
ATOM     15  C   UNL     1       5.460   0.058   2.015  0.00  0.00    +0.002 A 
ATOM     16  C   UNL     1       4.720  -0.046   0.896  0.00  0.00    -0.004 A 
ENDBRANCH   2  10
BRANCH   6  17
ATOM     17  C   UNL     1      -1.164  -1.256   0.081  0.00  0.00    +0.118 C 
BRANCH  17  18
ATOM     18  C   UNL     1      -1.687   0.310   0.112  0.00  0.00    +0.038 C 
ATOM     19  C   UNL     1      -3.114  -0.076   0.757  0.00  0.00    +0.074 C 
ATOM     20  N   UNL     1      -3.840   1.153   0.593  0.00  0.00    -0.269 NA
ATOM     21  C   UNL     1      -4.246   1.416  -0.750  0.00  0.00    +0.072 C 
ATOM     22  C   UNL     1      -3.079   1.412  -1.712  0.00  0.00    +0.017 C 
ATOM     23  C   UNL     1      -2.197   0.259  -1.419  0.00  0.00    +0.005 C 
BRANCH  20  24
ATOM     24  C   UNL     1      -4.822   1.403   1.586  0.00  0.00    +0.099 C 
BRANCH  24  25
ATOM     25  C   UNL     1      -5.950   0.479   1.355  0.00  0.00    -0.006 A 
ATOM     26  C   UNL     1      -6.989   0.735   0.496  0.00  0.00    -0.003 A 
ATOM     27  C   UNL     1      -8.000  -0.210   0.347  0.00  0.00    -0.000 A 
ATOM     28  C   UNL     1      -7.955  -1.405   1.065  0.00  0.00    -0.000 A 
ATOM     29  C   UNL     1      -6.920  -1.663   1.923  0.00  0.00    -0.000 A 
ATOM     30  C   UNL     1      -5.938  -0.721   2.055  0.00  0.00    -0.003 A 
ENDBRANCH  24  25
ENDBRANCH  20  24
ENDBRANCH  17  18
ENDBRANCH   6  17
TORSDOF 5
