REMARK  Name = 
REMARK  8 active torsions:
REMARK  status: ('A' for Active; 'I' for Inactive)
REMARK    1  A    between atoms: C_2  and  C_3
REMARK    2  A    between atoms: C_3  and  N_4
REMARK    3  A    between atoms: C_5  and  C_7
REMARK    4  A    between atoms: C_7  and  N_8
REMARK    5  A    between atoms: C_10  and  C_11
REMARK    6  A    between atoms: C_11  and  N_13
REMARK    7  A    between atoms: C_14  and  C_16
REMARK    8  A    between atoms: C_18  and  C_19
REMARK                            x       y       z     vdW  Elec       q    Type
REMARK                         _______ _______ _______ _____ _____    ______ ____
ROOT
ATOM      1  C   UNL     1       0.731  -0.190  -1.985  0.00  0.00    +0.098 C 
ATOM      2  C   UNL     1       0.936  -1.687  -2.597  0.00  0.00    +0.024 C 
ENDROOT
BRANCH   1   5
ATOM      3  N   UNL     1       1.854   0.123   1.238  0.00  0.00    -0.265 NA
ATOM      4  C   UNL     1       1.672   0.944   0.042  0.00  0.00    +0.076 C 
ATOM      5  C   UNL     1       1.394  -0.350  -0.684  0.00  0.00    +0.052 C 
ATOM      6  C   UNL     1       1.455  -0.994   0.489  0.00  0.00    +0.076 C 
BRANCH   3   7
ATOM      7  C   UNL     1       2.913   0.309   2.059  0.00  0.00    +0.160 C 
BRANCH   7   9
ATOM      8  N   UNL     1       5.421   0.608   2.276  0.00  0.00    -0.199 NA
ATOM      9  C   UNL     1       4.260   0.382   1.473  0.00  0.00    +0.258 C 
ATOM     10  O   UNL     1       4.402   0.248   0.258  0.00  0.00    -0.272 OA
BRANCH   8  11
ATOM     11  C   UNL     1       6.754   0.694   1.701  0.00  0.00    +0.141 C 
BRANCH  11  13
ATOM     12  C   UNL     1       7.450  -0.404  -0.309  0.00  0.00    -0.003 C 
ATOM     13  C   UNL     1       7.165  -0.508   0.986  0.00  0.00    -0.003 C 
ENDBRANCH  11  13
ENDBRANCH   8  11
ENDBRANCH   7   9
ENDBRANCH   3   7
ENDBRANCH   1   5
BRANCH   1  14
ATOM     14  N   UNL     1      -0.743  -0.218  -1.912  0.00  0.00    -0.203 NA
ATOM     15  C   UNL     1      -1.514   0.023  -0.807  0.00  0.00    +0.267 C 
ATOM     16  O   UNL     1      -0.947   0.296   0.293  0.00  0.00    -0.268 OA
BRANCH  15  17
ATOM     17  C   UNL     1      -3.002  -0.007  -0.796  0.00  0.00    +0.088 A 
ATOM     18  C   UNL     1      -3.896  -0.122  -1.830  0.00  0.00    +0.127 A 
ATOM     19  C   UNL     1      -3.519  -0.256  -3.253  0.00  0.00    +0.073 C 
ATOM     20  O   UNL     1      -5.141  -0.095  -1.372  0.00  0.00    -0.462 OA
ATOM     21  C   UNL     1      -5.135   0.033  -0.049  0.00  0.00    +0.122 A 
ATOM     22  C   UNL     1      -3.787   0.091   0.331  0.00  0.00    +0.040 A 
BRANCH  21  23
ATOM     23  C   UNL     1      -6.279   0.103   0.894  0.00  0.00    +0.057 C 
ATOM     24  C   UNL     1      -6.193   1.237   1.873  0.00  0.00    +0.008 C 
ATOM     25  C   UNL     1      -6.250  -1.193   1.681  0.00  0.00    +0.008 C 
ENDBRANCH  21  23
ENDBRANCH  15  17
ENDBRANCH   1  14
TORSDOF 8
