REMARK  Name = 
REMARK  5 active torsions:
REMARK  status: ('A' for Active; 'I' for Inactive)
REMARK    1  A    between atoms: C_2  and  C_3
REMARK    2  A    between atoms: N_15  and  C_16
REMARK    3  A    between atoms: C_16  and  C_17
REMARK    4  A    between atoms: N_21  and  C_22
REMARK    5  A    between atoms: C_22  and  C_23
REMARK                            x       y       z     vdW  Elec       q    Type
REMARK                         _______ _______ _______ _____ _____    ______ ____
ROOT
ATOM      1  C   UNL     1       4.542  -2.300  -0.713  0.00  0.00    +0.006 C 
ATOM      2  C   UNL     1       3.973  -1.018  -0.181  0.00  0.00    +0.039 C 
ATOM      3  C   UNL     1       2.690  -0.646  -0.838  0.00  0.00    +0.099 C 
ATOM      4  N   UNL     1       1.651  -0.827   0.115  0.00  0.00    -0.263 N 
ATOM      5  C   UNL     1       0.440  -0.174   0.314  0.00  0.00    +0.323 C 
ATOM      6  N   UNL     1      -0.198   0.742  -0.610  0.00  0.00    -0.188 NA
ATOM      7  O   UNL     1      -0.129  -0.432   1.432  0.00  0.00    -0.251 OA
ATOM      8  C   UNL     1       2.157  -1.872   1.022  0.00  0.00    +0.095 C 
ATOM      9  C   UNL     1       3.536  -1.361   1.264  0.00  0.00    +0.027 C 
ENDROOT
BRANCH   2  10
ATOM     10  C   UNL     1       5.012   0.032  -0.107  0.00  0.00    -0.019 A 
ATOM     11  C   UNL     1       6.343  -0.334  -0.230  0.00  0.00    +0.025 A 
ATOM     12  C   UNL     1       7.392   0.544  -0.143  0.00  0.00    +0.140 A 
ATOM     13  F   UNL     1       8.684   0.095  -0.281  0.00  0.00    -0.204 F 
ATOM     14  C   UNL     1       7.085   1.866   0.078  0.00  0.00    +0.030 A 
ATOM     15  C   UNL     1       5.770   2.289   0.207  0.00  0.00    +0.002 A 
ATOM     16  C   UNL     1       4.746   1.341   0.110  0.00  0.00    -0.004 A 
ENDBRANCH   2  10
BRANCH   6  17
ATOM     17  C   UNL     1      -1.391   1.331  -0.298  0.00  0.00    +0.118 C 
BRANCH  17  18
ATOM     18  C   UNL     1      -2.710   0.598  -0.102  0.00  0.00    +0.038 C 
ATOM     19  C   UNL     1      -2.784  -0.315  -1.399  0.00  0.00    +0.074 C 
ATOM     20  N   UNL     1      -3.868  -1.267  -1.111  0.00  0.00    -0.269 NA
ATOM     21  C   UNL     1      -3.053  -2.345  -0.409  0.00  0.00    +0.072 C 
ATOM     22  C   UNL     1      -2.991  -1.749   0.970  0.00  0.00    +0.017 C 
ATOM     23  C   UNL     1      -2.482  -0.426   1.025  0.00  0.00    +0.005 C 
BRANCH  20  24
ATOM     24  C   UNL     1      -4.754  -0.902  -0.126  0.00  0.00    +0.099 C 
BRANCH  24  25
ATOM     25  C   UNL     1      -5.703   0.116  -0.069  0.00  0.00    -0.006 A 
ATOM     26  C   UNL     1      -5.489   1.162   0.855  0.00  0.00    -0.003 A 
ATOM     27  C   UNL     1      -6.347   2.193   1.035  0.00  0.00    -0.000 A 
ATOM     28  C   UNL     1      -7.512   2.233   0.265  0.00  0.00    -0.000 A 
ATOM     29  C   UNL     1      -7.762   1.236  -0.651  0.00  0.00    -0.000 A 
ATOM     30  C   UNL     1      -6.848   0.190  -0.802  0.00  0.00    -0.003 A 
ENDBRANCH  24  25
ENDBRANCH  20  24
ENDBRANCH  17  18
ENDBRANCH   6  17
TORSDOF 5
