REMARK  Name = 
REMARK  9 active torsions:
REMARK  status: ('A' for Active; 'I' for Inactive)
REMARK    1  A    between atoms: N_3  and  C_4
REMARK    2  A    between atoms: C_4  and  C_5
REMARK    3  A    between atoms: C_5  and  C_6
REMARK    4  A    between atoms: C_6  and  O_7
REMARK    5  A    between atoms: O_7  and  C_8
REMARK    6  A    between atoms: N_15  and  C_16
REMARK    7  A    between atoms: C_16  and  C_17
REMARK    8  A    between atoms: N_21  and  C_22
REMARK    9  A    between atoms: C_22  and  C_23
REMARK                            x       y       z     vdW  Elec       q    Type
REMARK                         _______ _______ _______ _____ _____    ______ ____
ROOT
ATOM      1  O   UNL     1       1.226   1.133   1.698  0.00  0.00    -0.249 OA
ATOM      2  C   UNL     1       0.893   0.106   1.083  0.00  0.00    +0.339 C 
ATOM      3  N   UNL     1      -0.481  -0.169   0.883  0.00  0.00    -0.187 NA
ATOM      4  N   UNL     1       1.870  -0.775   0.590  0.00  0.00    -0.187 NA
ENDROOT
BRANCH   3   5
ATOM      5  C   UNL     1      -1.511   0.687   1.360  0.00  0.00    +0.118 C 
BRANCH   5   6
ATOM      6  C   UNL     1      -2.942   0.053   0.947  0.00  0.00    +0.038 C 
ATOM      7  C   UNL     1      -3.727   0.844   2.116  0.00  0.00    +0.074 C 
ATOM      8  N   UNL     1      -4.896   0.050   2.402  0.00  0.00    -0.269 NA
ATOM      9  C   UNL     1      -4.448  -0.770   3.523  0.00  0.00    +0.072 C 
ATOM     10  C   UNL     1      -3.092  -1.251   3.127  0.00  0.00    +0.017 C 
ATOM     11  C   UNL     1      -2.769  -1.340   1.741  0.00  0.00    +0.005 C 
BRANCH   8  12
ATOM     12  C   UNL     1      -5.323  -0.851   1.403  0.00  0.00    +0.099 C 
BRANCH  12  13
ATOM     13  C   UNL     1      -5.863  -0.338   0.162  0.00  0.00    -0.006 A 
ATOM     14  C   UNL     1      -5.076  -0.206  -0.937  0.00  0.00    -0.003 A 
ATOM     15  C   UNL     1      -5.584   0.272  -2.105  0.00  0.00    -0.000 A 
ATOM     16  C   UNL     1      -6.907   0.620  -2.159  0.00  0.00    -0.000 A 
ATOM     17  C   UNL     1      -7.762   0.512  -1.081  0.00  0.00    -0.000 A 
ATOM     18  C   UNL     1      -7.184   0.020   0.075  0.00  0.00    -0.003 A 
ENDBRANCH  12  13
ENDBRANCH   8  12
ENDBRANCH   5   6
ENDBRANCH   3   5
BRANCH   4  19
ATOM     19  C   UNL     1       3.307  -0.557   0.758  0.00  0.00    +0.121 C 
BRANCH  19  20
ATOM     20  C   UNL     1       3.656   0.744   0.101  0.00  0.00    +0.071 C 
BRANCH  20  21
ATOM     21  C   UNL     1       3.319   0.716  -1.374  0.00  0.00    +0.207 C 
BRANCH  21  22
ATOM     22  O   UNL     1       4.061  -0.321  -1.958  0.00  0.00    -0.475 OA
BRANCH  22  23
ATOM     23  C   UNL     1       5.447  -0.363  -1.939  0.00  0.00    +0.141 A 
ATOM     24  C   UNL     1       6.200   0.609  -1.348  0.00  0.00    +0.066 A 
ATOM     25  C   UNL     1       7.559   0.582  -1.321  0.00  0.00    +0.143 A 
ATOM     26  F   UNL     1       8.328   1.515  -0.751  0.00  0.00    -0.204 F 
ATOM     27  C   UNL     1       8.181  -0.494  -1.932  0.00  0.00    +0.030 A 
ATOM     28  C   UNL     1       7.442  -1.476  -2.529  0.00  0.00    +0.005 A 
ATOM     29  C   UNL     1       6.076  -1.422  -2.540  0.00  0.00    +0.037 A 
ENDBRANCH  22  23
ENDBRANCH  21  22
ENDBRANCH  20  21
ENDBRANCH  19  20
ENDBRANCH   4  19
TORSDOF 9
