REMARK  Name = 
REMARK  9 active torsions:
REMARK  status: ('A' for Active; 'I' for Inactive)
REMARK    1  A    between atoms: C_2  and  C_4
REMARK    2  A    between atoms: C_4  and  C_5
REMARK    3  A    between atoms: C_5  and  C_6
REMARK    4  A    between atoms: C_6  and  N_7
REMARK    5  A    between atoms: C_9  and  C_10
REMARK    6  A    between atoms: C_10  and  N_12
REMARK    7  A    between atoms: C_13  and  C_15
REMARK    8  A    between atoms: C_15  and  C_16
REMARK    9  A    between atoms: C_16  and  C_17
REMARK                            x       y       z     vdW  Elec       q    Type
REMARK                         _______ _______ _______ _____ _____    ______ ____
ROOT
ATOM      1  C   UNL     1       0.207  -0.679  -0.184  0.00  0.00    +0.098 C 
ATOM      2  C   UNL     1      -0.012   0.327  -1.467  0.00  0.00    +0.024 C 
ENDROOT
BRANCH   1   5
ATOM      3  N   UNL     1      -2.548  -1.531   0.334  0.00  0.00    -0.272 NA
ATOM      4  C   UNL     1      -1.689  -1.173   1.444  0.00  0.00    +0.075 C 
ATOM      5  C   UNL     1      -1.076  -0.049   0.638  0.00  0.00    +0.052 C 
ATOM      6  C   UNL     1      -2.231  -0.334  -0.325  0.00  0.00    +0.075 C 
BRANCH   3   7
ATOM      7  C   UNL     1      -3.891  -1.780   0.666  0.00  0.00    +0.072 C 
BRANCH   7   8
ATOM      8  C   UNL     1      -4.548  -0.942   1.680  0.00  0.00    +0.017 C 
BRANCH   8   9
ATOM      9  C   UNL     1      -4.761   0.488   1.427  0.00  0.00    +0.001 C 
BRANCH   9  11
ATOM     10  C   UNL     1      -7.099   0.327   0.595  0.00  0.00    +0.000 C 
ATOM     11  C   UNL     1      -5.690   0.871   0.326  0.00  0.00    +0.000 C 
ATOM     12  C   UNL     1      -5.324   0.344  -1.033  0.00  0.00    +0.000 C 
ENDBRANCH   9  11
ENDBRANCH   8   9
ENDBRANCH   7   8
ENDBRANCH   3   7
ENDBRANCH   1   5
BRANCH   1  13
ATOM     13  N   UNL     1       1.241   0.267   0.520  0.00  0.00    -0.207 NA
ATOM     14  C   UNL     1       2.442   0.541  -0.237  0.00  0.00    +0.241 C 
ATOM     15  O   UNL     1       2.480  -0.027  -1.362  0.00  0.00    -0.273 OA
BRANCH  14  16
ATOM     16  C   UNL     1       3.482   1.408   0.315  0.00  0.00    +0.087 C 
BRANCH  16  17
ATOM     17  C   UNL     1       4.705   1.561  -0.465  0.00  0.00    +0.010 C 
BRANCH  17  18
ATOM     18  C   UNL     1       5.544   0.370  -0.730  0.00  0.00    +0.000 C 
ATOM     19  C   UNL     1       6.749   0.158   0.182  0.00  0.00    +0.000 C 
ATOM     20  C   UNL     1       6.997   0.683  -1.183  0.00  0.00    +0.000 C 
ATOM     21  C   UNL     1       5.022  -0.830  -1.478  0.00  0.00    +0.000 C 
ENDBRANCH  17  18
ENDBRANCH  16  17
ENDBRANCH  14  16
ENDBRANCH   1  13
TORSDOF 9
