REMARK  Name = 
REMARK  5 active torsions:
REMARK  status: ('A' for Active; 'I' for Inactive)
REMARK    1  A    between atoms: N_5  and  C_6
REMARK    2  A    between atoms: C_6  and  C_8
REMARK    3  A    between atoms: C_8  and  N_9
REMARK    4  A    between atoms: N_12  and  C_13
REMARK    5  A    between atoms: C_13  and  C_14
REMARK                            x       y       z     vdW  Elec       q    Type
REMARK                         _______ _______ _______ _____ _____    ______ ____
ROOT
ATOM      1  N   UNL     1      -1.645   0.110   0.977  0.00  0.00    -0.186 NA
ATOM      2  C   UNL     1      -0.440  -0.567   1.112  0.00  0.00    +0.339 C 
ATOM      3  N   UNL     1       0.488  -0.319   2.158  0.00  0.00    -0.185 NA
ATOM      4  O   UNL     1      -0.170  -1.444   0.256  0.00  0.00    -0.249 OA
ENDROOT
BRANCH   1   5
ATOM      5  C   UNL     1      -2.686   0.046   0.051  0.00  0.00    +0.133 C 
BRANCH   5   6
ATOM      6  C   UNL     1      -2.146   0.427  -1.432  0.00  0.00    +0.079 C 
ATOM      7  C   UNL     1      -1.725  -1.152  -1.803  0.00  0.00    +0.019 C 
BRANCH   6  12
ATOM      8  C   UNL     1      -6.163   1.750   0.807  0.00  0.00    +0.000 C 
ATOM      9  C   UNL     1      -5.726   1.143  -0.521  0.00  0.00    +0.003 C 
ATOM     10  C   UNL     1      -4.923   2.165  -1.244  0.00  0.00    +0.017 C 
ATOM     11  C   UNL     1      -4.049   1.608  -2.332  0.00  0.00    +0.072 C 
ATOM     12  N   UNL     1      -3.587   0.293  -2.120  0.00  0.00    -0.272 NA
ATOM     13  C   UNL     1      -4.367  -0.651  -1.514  0.00  0.00    +0.072 C 
ATOM     14  C   UNL     1      -5.031  -0.153  -0.281  0.00  0.00    +0.017 C 
ENDBRANCH   6  12
ENDBRANCH   5   6
ENDBRANCH   1   5
BRANCH   3  15
ATOM     15  C   UNL     1       1.736  -0.880   2.432  0.00  0.00    +0.147 C 
BRANCH  15  16
ATOM     16  C   UNL     1       2.776  -0.649   1.417  0.00  0.00    +0.147 C 
ATOM     17  C   UNL     1       3.067   0.853   1.405  0.00  0.00    +0.032 C 
ATOM     18  C   UNL     1       3.538   1.173  -0.018  0.00  0.00    +0.003 C 
ATOM     19  C   UNL     1       4.941   0.562  -0.111  0.00  0.00    +0.000 C 
ATOM     20  C   UNL     1       5.680   0.878   1.179  0.00  0.00    +0.000 C 
ATOM     21  C   UNL     1       5.678   1.084  -1.297  0.00  0.00    +0.000 C 
ATOM     22  C   UNL     1       4.836  -0.957  -0.193  0.00  0.00    +0.000 C 
ATOM     23  C   UNL     1       3.541  -1.308  -0.891  0.00  0.00    +0.003 C 
ATOM     24  C   UNL     1       2.403  -1.162   0.078  0.00  0.00    +0.032 C 
ATOM     25  O   UNL     1       3.971  -1.271   1.885  0.00  0.00    -0.224 OA
ENDBRANCH  15  16
ENDBRANCH   3  15
TORSDOF 5
