REMARK  Name = 
REMARK  9 active torsions:
REMARK  status: ('A' for Active; 'I' for Inactive)
REMARK    1  A    between atoms: O_2  and  C_3
REMARK    2  A    between atoms: C_3  and  C_4
REMARK    3  A    between atoms: C_4  and  C_6
REMARK    4  A    between atoms: C_6  and  C_7
REMARK    5  A    between atoms: N_9  and  C_10
REMARK    6  A    between atoms: C_10  and  C_12
REMARK    7  A    between atoms: N_14  and  C_15
REMARK    8  A    between atoms: C_15  and  C_16
REMARK    9  A    between atoms: C_20  and  O_21
REMARK                            x       y       z     vdW  Elec       q    Type
REMARK                         _______ _______ _______ _____ _____    ______ ____
ROOT
ATOM      1  C   UNL     1       0.555  -0.161  -0.364  0.00  0.00    +0.052 C 
ATOM      2  C   UNL     1      -0.183  -1.381  -0.139  0.00  0.00    +0.075 C 
ATOM      3  N   UNL     1      -1.189  -0.525   0.520  0.00  0.00    -0.269 NA
ATOM      4  C   UNL     1      -0.806   0.472  -0.270  0.00  0.00    +0.075 C 
ENDROOT
BRANCH   1   5
ATOM      5  C   UNL     1       1.531   0.302   0.848  0.00  0.00    +0.098 C 
ATOM      6  C   UNL     1       1.128  -0.806   1.987  0.00  0.00    +0.024 C 
BRANCH   5   8
ATOM      7  C   UNL     1       3.525   0.054  -0.664  0.00  0.00    +0.241 C 
ATOM      8  N   UNL     1       2.723  -0.580   0.327  0.00  0.00    -0.207 NA
ATOM      9  O   UNL     1       3.202   1.223  -0.995  0.00  0.00    -0.273 OA
BRANCH   7  10
ATOM     10  C   UNL     1       4.631  -0.729  -1.185  0.00  0.00    +0.089 C 
BRANCH  10  11
ATOM     11  C   UNL     1       5.437   0.067  -2.330  0.00  0.00    +0.039 C 
ATOM     12  C   UNL     1       4.176   0.860  -2.974  0.00  0.00    +0.003 C 
BRANCH  11  13
ATOM     13  C   UNL     1       5.850   1.322  -1.343  0.00  0.00    +0.143 C 
BRANCH  13  15
ATOM     14  C   UNL     1       6.818  -0.181   0.146  0.00  0.00    +0.174 C 
ATOM     15  O   UNL     1       6.942   0.926  -0.639  0.00  0.00    -0.351 OA
ENDBRANCH  13  15
ENDBRANCH  11  13
ENDBRANCH  10  11
ENDBRANCH   7  10
ENDBRANCH   5   8
ENDBRANCH   1   5
BRANCH   3  16
ATOM     16  C   UNL     1      -2.184  -1.394   0.715  0.00  0.00    +0.099 C 
BRANCH  16  17
ATOM     17  C   UNL     1      -3.462  -0.779   0.962  0.00  0.00    +0.000 A 
ATOM     18  C   UNL     1      -4.369  -0.596  -0.051  0.00  0.00    +0.055 A 
ATOM     19  C   UNL     1      -5.560  -0.016   0.259  0.00  0.00    +0.225 A 
ATOM     20  N   UNL     1      -5.830   0.366   1.540  0.00  0.00    -0.210 NA
ATOM     21  C   UNL     1      -4.942   0.184   2.522  0.00  0.00    +0.102 A 
ATOM     22  C   UNL     1      -3.725  -0.400   2.241  0.00  0.00    +0.018 A 
BRANCH  19  23
ATOM     23  O   UNL     1      -6.515   0.198  -0.712  0.00  0.00    -0.456 OA
ATOM     24  C   UNL     1      -7.750   0.795  -0.401  0.00  0.00    +0.254 C 
ENDBRANCH  19  23
ENDBRANCH  16  17
ENDBRANCH   3  16
TORSDOF 9
