REMARK  Name = 
REMARK  8 active torsions:
REMARK  status: ('A' for Active; 'I' for Inactive)
REMARK    1  A    between atoms: C_2  and  N_3
REMARK    2  A    between atoms: C_2  and  C_12
REMARK    3  A    between atoms: C_4  and  C_6
REMARK    4  A    between atoms: C_6  and  C_7
REMARK    5  A    between atoms: C_7  and  C_8
REMARK    6  A    between atoms: N_14  and  C_15
REMARK    7  A    between atoms: C_15  and  C_16
REMARK    8  A    between atoms: C_17  and  C_18
REMARK                            x       y       z     vdW  Elec       q    Type
REMARK                         _______ _______ _______ _____ _____    ______ ____
ROOT
ATOM      1  C   UNL     1       0.677  -0.523  -0.017  0.00  0.00    +0.052 C 
ATOM      2  C   UNL     1      -0.589  -0.924  -0.749  0.00  0.00    +0.076 C 
ATOM      3  N   UNL     1      -0.472  -2.144   0.095  0.00  0.00    -0.262 NA
ATOM      4  C   UNL     1      -0.071  -1.180   1.124  0.00  0.00    +0.076 C 
ENDROOT
BRANCH   1   6
ATOM      5  C   UNL     1       2.539  -1.847   0.761  0.00  0.00    +0.024 C 
ATOM      6  C   UNL     1       1.714  -1.652  -0.633  0.00  0.00    +0.098 C 
BRANCH   6   7
ATOM      7  N   UNL     1       2.656  -0.602  -1.265  0.00  0.00    -0.207 NA
ATOM      8  C   UNL     1       3.477   0.226  -0.534  0.00  0.00    +0.241 C 
ATOM      9  O   UNL     1       3.452   0.107   0.748  0.00  0.00    -0.273 OA
BRANCH   8  10
ATOM     10  C   UNL     1       4.334   1.189  -1.234  0.00  0.00    +0.087 C 
BRANCH  10  11
ATOM     11  C   UNL     1       5.309   1.789  -0.309  0.00  0.00    +0.010 C 
BRANCH  11  12
ATOM     12  C   UNL     1       6.322   0.903   0.327  0.00  0.00    +0.000 C 
ATOM     13  C   UNL     1       7.522   0.646  -0.660  0.00  0.00    +0.000 C 
ATOM     14  C   UNL     1       7.667   1.573   0.561  0.00  0.00    +0.000 C 
ATOM     15  C   UNL     1       6.006  -0.250   1.215  0.00  0.00    +0.000 C 
ENDBRANCH  11  12
ENDBRANCH  10  11
ENDBRANCH   8  10
ENDBRANCH   6   7
ENDBRANCH   1   6
BRANCH   3  16
ATOM     16  C   UNL     1      -1.742  -2.779   0.317  0.00  0.00    +0.150 C 
BRANCH  16  17
ATOM     17  C   UNL     1      -2.842  -1.802   0.166  0.00  0.00    -0.068 C 
ATOM     18  C   UNL     1      -3.727  -0.991   0.032  0.00  0.00    -0.063 C 
BRANCH  18  19
ATOM     19  C   UNL     1      -4.753  -0.018  -0.148  0.00  0.00    +0.042 A 
ATOM     20  C   UNL     1      -5.345   0.571   0.944  0.00  0.00    +0.011 A 
ATOM     21  C   UNL     1      -6.344   1.504   0.789  0.00  0.00    +0.030 A 
ATOM     22  C   UNL     1      -6.747   1.847  -0.460  0.00  0.00    +0.140 A 
ATOM     23  F   UNL     1      -7.741   2.776  -0.580  0.00  0.00    -0.204 F 
ATOM     24  C   UNL     1      -6.152   1.259  -1.544  0.00  0.00    +0.030 A 
ATOM     25  C   UNL     1      -5.152   0.322  -1.401  0.00  0.00    +0.011 A 
ENDBRANCH  18  19
ENDBRANCH  16  17
ENDBRANCH   3  16
TORSDOF 8
