REMARK  Name = 
REMARK  8 active torsions:
REMARK  status: ('A' for Active; 'I' for Inactive)
REMARK    1  A    between atoms: C_2  and  C_3
REMARK    2  A    between atoms: C_3  and  C_4
REMARK    3  A    between atoms: C_4  and  C_5
REMARK    4  A    between atoms: C_5  and  N_7
REMARK    5  A    between atoms: C_9  and  C_10
REMARK    6  A    between atoms: C_10  and  N_12
REMARK    7  A    between atoms: C_13  and  C_15
REMARK    8  A    between atoms: C_19  and  O_20
REMARK                            x       y       z     vdW  Elec       q    Type
REMARK                         _______ _______ _______ _____ _____    ______ ____
ROOT
ATOM      1  C   UNL     1       0.650  -1.551  -1.896  0.00  0.00    +0.098 C 
ATOM      2  C   UNL     1       0.304  -0.203  -2.781  0.00  0.00    +0.024 C 
ENDROOT
BRANCH   1   5
ATOM      3  N   UNL     1       2.111  -0.448   1.032  0.00  0.00    -0.274 NA
ATOM      4  C   UNL     1       0.848  -0.243   0.327  0.00  0.00    +0.075 C 
ATOM      5  C   UNL     1       1.616  -0.751  -0.867  0.00  0.00    +0.052 C 
ATOM      6  C   UNL     1       2.184  -1.662   0.175  0.00  0.00    +0.075 C 
BRANCH   3   7
ATOM      7  C   UNL     1       3.208   0.430   0.249  0.00  0.00    +0.058 C 
ATOM      8  C   UNL     1       3.568   1.407   1.520  0.00  0.00    +0.017 C 
BRANCH   7   9
ATOM      9  C   UNL     1       4.415  -0.624   0.568  0.00  0.00    +0.021 C 
BRANCH   9  10
ATOM     10  C   UNL     1       5.688   0.138   0.462  0.00  0.00    +0.027 C 
BRANCH  10  12
ATOM     11  C   UNL     1       6.107   2.519   0.940  0.00  0.00    -0.005 C 
ATOM     12  C   UNL     1       5.875   1.281   1.362  0.00  0.00    -0.026 C 
ENDBRANCH  10  12
ENDBRANCH   9  10
ENDBRANCH   7   9
ENDBRANCH   3   7
ENDBRANCH   1   5
BRANCH   1  13
ATOM     13  N   UNL     1      -0.621  -1.647  -1.021  0.00  0.00    -0.202 NA
ATOM     14  C   UNL     1      -1.492  -0.611  -0.810  0.00  0.00    +0.283 C 
ATOM     15  O   UNL     1      -1.126   0.447  -1.426  0.00  0.00    -0.267 OA
BRANCH  14  16
ATOM     16  C   UNL     1      -2.713  -0.601  -0.005  0.00  0.00    +0.139 A 
ATOM     17  N   UNL     1      -3.432   0.527   0.078  0.00  0.00    -0.207 NA
ATOM     18  C   UNL     1      -4.574   0.635   0.799  0.00  0.00    +0.225 A 
ATOM     19  C   UNL     1      -5.042  -0.457   1.491  0.00  0.00    +0.058 A 
ATOM     20  C   UNL     1      -4.303  -1.639   1.412  0.00  0.00    +0.006 A 
ATOM     21  C   UNL     1      -3.143  -1.711   0.667  0.00  0.00    +0.024 A 
BRANCH  18  22
ATOM     22  O   UNL     1      -5.305   1.814   0.873  0.00  0.00    -0.456 OA
ATOM     23  C   UNL     1      -4.825   2.949   0.161  0.00  0.00    +0.254 C 
ENDBRANCH  18  22
ENDBRANCH  14  16
ENDBRANCH   1  13
TORSDOF 8
