REMARK  Name = 
REMARK  8 active torsions:
REMARK  status: ('A' for Active; 'I' for Inactive)
REMARK    1  A    between atoms: C_2  and  C_3
REMARK    2  A    between atoms: C_3  and  C_4
REMARK    3  A    between atoms: C_4  and  C_5
REMARK    4  A    between atoms: C_5  and  N_7
REMARK    5  A    between atoms: C_9  and  C_10
REMARK    6  A    between atoms: C_10  and  N_12
REMARK    7  A    between atoms: C_13  and  C_15
REMARK    8  A    between atoms: C_19  and  O_20
REMARK                            x       y       z     vdW  Elec       q    Type
REMARK                         _______ _______ _______ _____ _____    ______ ____
ROOT
ATOM      1  C   UNL     1       0.642  -1.075  -1.034  0.00  0.00    +0.098 C 
ATOM      2  C   UNL     1       0.720   0.181  -2.070  0.00  0.00    +0.024 C 
ENDROOT
BRANCH   1   5
ATOM      3  N   UNL     1       3.416  -1.076   0.805  0.00  0.00    -0.274 NA
ATOM      4  C   UNL     1       2.949  -1.284  -0.514  0.00  0.00    +0.075 C 
ATOM      5  C   UNL     1       1.711  -0.437  -0.004  0.00  0.00    +0.052 C 
ATOM      6  C   UNL     1       2.007  -1.219   1.187  0.00  0.00    +0.075 C 
BRANCH   3   7
ATOM      7  C   UNL     1       3.647   0.457   1.108  0.00  0.00    +0.058 C 
ATOM      8  C   UNL     1       3.891   0.919  -0.455  0.00  0.00    +0.017 C 
BRANCH   7   9
ATOM      9  C   UNL     1       5.258   0.267   1.319  0.00  0.00    +0.021 C 
BRANCH   9  10
ATOM     10  C   UNL     1       5.958   1.498   1.082  0.00  0.00    +0.027 C 
BRANCH  10  12
ATOM     11  C   UNL     1       5.401   3.344  -0.491  0.00  0.00    -0.005 C 
ATOM     12  C   UNL     1       5.833   2.163  -0.184  0.00  0.00    -0.026 C 
ENDBRANCH  10  12
ENDBRANCH   9  10
ENDBRANCH   7   9
ENDBRANCH   3   7
ENDBRANCH   1   5
BRANCH   1  13
ATOM     13  N   UNL     1      -0.689  -0.443  -0.403  0.00  0.00    -0.202 NA
ATOM     14  C   UNL     1      -1.791  -1.319  -0.464  0.00  0.00    +0.283 C 
ATOM     15  O   UNL     1      -1.567  -2.514  -0.972  0.00  0.00    -0.267 OA
BRANCH  14  16
ATOM     16  C   UNL     1      -3.132  -1.081  -0.049  0.00  0.00    +0.139 A 
ATOM     17  N   UNL     1      -3.726   0.095  -0.015  0.00  0.00    -0.207 NA
ATOM     18  C   UNL     1      -4.529   0.799   0.088  0.00  0.00    +0.225 A 
ATOM     19  C   UNL     1      -5.737  -0.403   0.389  0.00  0.00    +0.058 A 
ATOM     20  C   UNL     1      -5.324  -1.614   0.395  0.00  0.00    +0.006 A 
ATOM     21  C   UNL     1      -4.053  -2.120   0.193  0.00  0.00    +0.024 A 
BRANCH  18  22
ATOM     22  O   UNL     1      -5.643   1.764   0.232  0.00  0.00    -0.456 OA
ATOM     23  C   UNL     1      -5.239   3.099   0.098  0.00  0.00    +0.254 C 
ENDBRANCH  18  22
ENDBRANCH  14  16
ENDBRANCH   1  13
TORSDOF 8
