REMARK  Name = 
REMARK  6 active torsions:
REMARK  status: ('A' for Active; 'I' for Inactive)
REMARK    1  A    between atoms: C_2  and  C_3
REMARK    2  A    between atoms: C_6  and  N_7
REMARK    3  A    between atoms: N_10  and  C_11
REMARK    4  A    between atoms: C_11  and  C_12
REMARK    5  A    between atoms: N_16  and  C_17
REMARK    6  A    between atoms: C_17  and  C_18
REMARK                            x       y       z     vdW  Elec       q    Type
REMARK                         _______ _______ _______ _____ _____    ______ ____
ROOT
ATOM      1  C   UNL     1      -0.333  -0.468  -1.224  0.00  0.00    +0.118 C 
ENDROOT
BRANCH   1   2
ATOM      2  C   UNL     1      -0.344   1.007  -0.520  0.00  0.00    +0.038 C 
ATOM      3  C   UNL     1      -1.953   0.976  -0.244  0.00  0.00    +0.074 C 
ATOM      4  N   UNL     1      -2.225  -0.291   0.400  0.00  0.00    -0.269 NA
ATOM      5  C   UNL     1      -2.117  -0.039   1.822  0.00  0.00    +0.072 C 
ATOM      6  C   UNL     1      -0.909   0.878   1.945  0.00  0.00    +0.017 C 
ATOM      7  C   UNL     1       0.099   0.443   0.945  0.00  0.00    +0.005 C 
BRANCH   4   8
ATOM      8  C   UNL     1      -3.331  -1.015  -0.038  0.00  0.00    +0.099 C 
BRANCH   8   9
ATOM      9  C   UNL     1      -4.651  -0.475   0.230  0.00  0.00    -0.006 A 
ATOM     10  C   UNL     1      -5.330  -0.777   1.357  0.00  0.00    -0.003 A 
ATOM     11  C   UNL     1      -6.578  -0.250   1.575  0.00  0.00    -0.000 A 
ATOM     12  C   UNL     1      -7.155   0.590   0.657  0.00  0.00    -0.000 A 
ATOM     13  C   UNL     1      -6.486   0.901  -0.477  0.00  0.00    -0.000 A 
ATOM     14  C   UNL     1      -5.229   0.366  -0.691  0.00  0.00    -0.003 A 
ENDBRANCH   8   9
ENDBRANCH   4   8
ENDBRANCH   1   2
BRANCH   1  17
ATOM     15  N   UNL     1       3.351  -0.855  -1.537  0.00  0.00    -0.189 NA
ATOM     16  C   UNL     1       2.066  -0.306  -1.678  0.00  0.00    +0.339 C 
ATOM     17  N   UNL     1       0.982  -0.987  -1.106  0.00  0.00    -0.187 NA
ATOM     18  O   UNL     1       1.838   0.768  -2.295  0.00  0.00    -0.249 OA
BRANCH  15  22
ATOM     19  C   UNL     1       4.284  -0.191   0.740  0.00  0.00    +0.065 C 
ATOM     20  C   UNL     1       5.744  -0.202   0.012  0.00  0.00    +0.015 C 
ATOM     21  C   UNL     1       5.705  -0.635  -1.320  0.00  0.00    +0.023 C 
ATOM     22  C   UNL     1       4.493  -0.014  -2.222  0.00  0.00    +0.097 C 
ATOM     23  C   UNL     1       4.322   1.332  -1.315  0.00  0.00    +0.023 C 
ATOM     24  C   UNL     1       3.787   1.151  -0.041  0.00  0.00    +0.015 C 
BRANCH  19  26
ATOM     25  C   UNL     1       5.176   1.183   3.010  0.00  0.00    -0.014 C 
ATOM     26  C   UNL     1       4.796   0.595   2.013  0.00  0.00    -0.079 C 
ENDBRANCH  19  26
ENDBRANCH  15  22
ENDBRANCH   1  17
TORSDOF 6
