REMARK  Name = 
REMARK  7 active torsions:
REMARK  status: ('A' for Active; 'I' for Inactive)
REMARK    1  A    between atoms: C_5  and  C_6
REMARK    2  A    between atoms: C_6  and  N_7
REMARK    3  A    between atoms: C_9  and  C_10
REMARK    4  A    between atoms: C_10  and  N_12
REMARK    5  A    between atoms: C_13  and  C_15
REMARK    6  A    between atoms: C_15  and  C_16
REMARK    7  A    between atoms: C_16  and  N_17
REMARK                            x       y       z     vdW  Elec       q    Type
REMARK                         _______ _______ _______ _____ _____    ______ ____
ROOT
ATOM      1  C   UNL     1      -0.298   0.503  -0.239  0.00  0.00    +0.098 C 
ATOM      2  C   UNL     1       0.087  -0.278   1.137  0.00  0.00    +0.024 C 
ENDROOT
BRANCH   1   5
ATOM      3  N   UNL     1       2.409   1.306  -1.478  0.00  0.00    -0.267 NA
ATOM      4  C   UNL     1       1.137   1.827  -1.561  0.00  0.00    +0.076 C 
ATOM      5  C   UNL     1       0.905   1.633  -0.084  0.00  0.00    +0.052 C 
ATOM      6  C   UNL     1       2.210   1.013  -0.082  0.00  0.00    +0.076 C 
BRANCH   3   7
ATOM      7  C   UNL     1       2.922   0.181  -2.105  0.00  0.00    +0.127 C 
BRANCH   7  11
ATOM      8  C   UNL     1       7.357  -1.610   0.727  0.00  0.00    +0.061 C 
ATOM      9  C   UNL     1       6.312  -1.038  -0.161  0.00  0.00    +0.111 A 
ATOM     10  S   UNL     1       4.583  -1.089  -0.109  0.00  0.00    -0.053 S 
ATOM     11  C   UNL     1       4.249  -0.164  -1.524  0.00  0.00    +0.127 A 
ATOM     12  N   UNL     1       5.485   0.100  -1.904  0.00  0.00    -0.144 NA
ATOM     13  N   UNL     1       6.484  -0.315  -1.257  0.00  0.00    -0.146 NA
ENDBRANCH   7  11
ENDBRANCH   3   7
ENDBRANCH   1   5
BRANCH   1  14
ATOM     14  N   UNL     1      -1.350   1.430   0.415  0.00  0.00    -0.207 NA
ATOM     15  C   UNL     1      -2.693   1.070   0.231  0.00  0.00    +0.243 C 
ATOM     16  O   UNL     1      -2.874   0.022  -0.439  0.00  0.00    -0.273 OA
BRANCH  15  17
ATOM     17  C   UNL     1      -3.825   1.880   0.795  0.00  0.00    +0.111 C 
BRANCH  17  18
ATOM     18  C   UNL     1      -5.111   1.306   0.466  0.00  0.00    +0.116 C 
BRANCH  18  19
ATOM     19  N   UNL     1      -5.365  -0.004   0.982  0.00  0.00    -0.324 N 
ATOM     20  C   UNL     1      -5.950  -0.239   2.197  0.00  0.00    +0.076 A 
ATOM     21  C   UNL     1      -6.042  -1.606   2.347  0.00  0.00    +0.020 A 
ATOM     22  C   UNL     1      -5.515  -2.227   1.224  0.00  0.00    +0.020 A 
ATOM     23  C   UNL     1      -5.116  -1.181   0.422  0.00  0.00    +0.076 A 
ENDBRANCH  18  19
ENDBRANCH  17  18
ENDBRANCH  15  17
ENDBRANCH   1  14
TORSDOF 7
