REMARK  Name = 
REMARK  7 active torsions:
REMARK  status: ('A' for Active; 'I' for Inactive)
REMARK    1  A    between atoms: O_2  and  C_3
REMARK    2  A    between atoms: C_3  and  C_5
REMARK    3  A    between atoms: C_10  and  N_11
REMARK    4  A    between atoms: N_14  and  C_15
REMARK    5  A    between atoms: C_15  and  C_16
REMARK    6  A    between atoms: N_20  and  C_21
REMARK    7  A    between atoms: C_21  and  C_22
REMARK                            x       y       z     vdW  Elec       q    Type
REMARK                         _______ _______ _______ _____ _____    ______ ____
ROOT
ATOM      1  N   UNL     1       1.339  -1.534   1.122  0.00  0.00    -0.189 NA
ATOM      2  C   UNL     1       0.249  -1.802   0.267  0.00  0.00    +0.339 C 
ATOM      3  N   UNL     1      -0.664  -2.865   0.442  0.00  0.00    -0.187 NA
ATOM      4  O   UNL     1       0.086  -1.022  -0.728  0.00  0.00    -0.249 OA
ENDROOT
BRANCH   1  11
ATOM      5  C   UNL     1       5.858   0.781  -0.526  0.00  0.00    +0.104 C 
ATOM      6  C   UNL     1       4.383   0.525  -0.684  0.00  0.00    +0.038 C 
ATOM      7  C   UNL     1       4.535  -0.819  -0.025  0.00  0.00    +0.095 C 
ATOM      8  O   UNL     1       4.346  -1.912  -0.872  0.00  0.00    -0.358 OA
ATOM      9  C   UNL     1       2.934  -2.079  -0.867  0.00  0.00    +0.144 C 
ATOM     10  C   UNL     1       2.363  -0.693  -0.848  0.00  0.00    +0.054 C 
ATOM     11  C   UNL     1       2.222  -0.282   0.749  0.00  0.00    +0.102 C 
ATOM     12  C   UNL     1       3.647  -1.062   1.158  0.00  0.00    +0.049 C 
ATOM     13  C   UNL     1       5.965  -0.534   0.209  0.00  0.00    +0.038 C 
BRANCH   5  14
ATOM     14  C   UNL     1       6.182   1.908   0.386  0.00  0.00    +0.317 C 
ATOM     15  O   UNL     1       6.511   1.682   1.574  0.00  0.00    -0.250 OA
BRANCH  14  17
ATOM     16  C   UNL     1       6.443   4.266   0.849  0.00  0.00    +0.256 C 
ATOM     17  O   UNL     1       6.129   3.230  -0.059  0.00  0.00    -0.444 OA
ENDBRANCH  14  17
ENDBRANCH   5  14
ENDBRANCH   1  11
BRANCH   3  18
ATOM     18  C   UNL     1      -1.726  -2.966  -0.586  0.00  0.00    +0.118 C 
BRANCH  18  19
ATOM     19  C   UNL     1      -2.374  -1.472  -0.360  0.00  0.00    +0.038 C 
ATOM     20  C   UNL     1      -3.340  -1.946   0.886  0.00  0.00    +0.074 C 
ATOM     21  N   UNL     1      -4.467  -0.996   0.812  0.00  0.00    -0.269 NA
ATOM     22  C   UNL     1      -5.415  -1.618  -0.089  0.00  0.00    +0.072 C 
ATOM     23  C   UNL     1      -4.615  -2.489  -1.034  0.00  0.00    +0.017 C 
ATOM     24  C   UNL     1      -3.507  -1.662  -1.527  0.00  0.00    +0.005 C 
BRANCH  21  25
ATOM     25  C   UNL     1      -3.918   0.232   0.396  0.00  0.00    +0.099 C 
BRANCH  25  26
ATOM     26  C   UNL     1      -4.790   1.353   0.125  0.00  0.00    -0.006 A 
ATOM     27  C   UNL     1      -6.073   1.283  -0.371  0.00  0.00    -0.003 A 
ATOM     28  C   UNL     1      -6.798   2.435  -0.593  0.00  0.00    -0.000 A 
ATOM     29  C   UNL     1      -6.257   3.684  -0.324  0.00  0.00    -0.000 A 
ATOM     30  C   UNL     1      -4.978   3.757   0.170  0.00  0.00    -0.000 A 
ATOM     31  C   UNL     1      -4.272   2.620   0.385  0.00  0.00    -0.003 A 
ENDBRANCH  25  26
ENDBRANCH  21  25
ENDBRANCH  18  19
ENDBRANCH   3  18
TORSDOF 7
