REMARK  Name = 
REMARK  7 active torsions:
REMARK  status: ('A' for Active; 'I' for Inactive)
REMARK    1  A    between atoms: C_2  and  N_3
REMARK    2  A    between atoms: C_2  and  C_15
REMARK    3  A    between atoms: C_4  and  C_6
REMARK    4  A    between atoms: C_6  and  C_7
REMARK    5  A    between atoms: N_17  and  C_18
REMARK    6  A    between atoms: C_18  and  C_19
REMARK    7  A    between atoms: C_19  and  C_20
REMARK                            x       y       z     vdW  Elec       q    Type
REMARK                         _______ _______ _______ _____ _____    ______ ____
ROOT
ATOM      1  N   UNL     1      -0.064  -1.154   0.002  0.00  0.00    -0.207 NA
ATOM      2  C   UNL     1      -1.419  -1.181   0.382  0.00  0.00    +0.241 C 
ATOM      3  O   UNL     1      -1.675  -1.410   1.597  0.00  0.00    -0.273 OA
ENDROOT
BRANCH   1   5
ATOM      4  C   UNL     1       1.608  -2.737   0.411  0.00  0.00    +0.024 C 
ATOM      5  C   UNL     1       0.989  -1.409   1.125  0.00  0.00    +0.098 C 
BRANCH   5   6
ATOM      6  C   UNL     1       2.066  -0.349   0.526  0.00  0.00    +0.052 C 
ATOM      7  C   UNL     1       2.565  -0.666  -0.795  0.00  0.00    +0.075 C 
ATOM      8  N   UNL     1       3.869  -0.928  -0.273  0.00  0.00    -0.272 NA
ATOM      9  C   UNL     1       3.380  -0.867   1.059  0.00  0.00    +0.075 C 
BRANCH   8  10
ATOM     10  C   UNL     1       4.945  -0.084  -0.530  0.00  0.00    +0.072 C 
BRANCH  10  11
ATOM     11  C   UNL     1       4.715   1.379  -0.527  0.00  0.00    +0.017 C 
BRANCH  11  12
ATOM     12  C   UNL     1       6.024   2.054  -0.830  0.00  0.00    +0.001 C 
ATOM     13  C   UNL     1       7.163   1.082  -1.194  0.00  0.00    +0.000 C 
ATOM     14  C   UNL     1       7.159   1.810   0.102  0.00  0.00    +0.000 C 
ENDBRANCH  11  12
ENDBRANCH  10  11
ENDBRANCH   8  10
ENDBRANCH   5   6
ENDBRANCH   1   5
BRANCH   2  15
ATOM     15  C   UNL     1      -2.527  -0.955  -0.576  0.00  0.00    +0.089 C 
BRANCH  15  16
ATOM     16  C   UNL     1      -3.890  -1.088   0.291  0.00  0.00    +0.033 C 
ATOM     17  C   UNL     1      -3.803   0.392   0.911  0.00  0.00    +0.151 C 
ATOM     18  S   UNL     1      -5.099   1.410   0.438  0.00  0.00    -0.010 S 
ATOM     19  O   UNL     1      -4.775   2.787   0.935  0.00  0.00    -0.173 OA
ATOM     20  O   UNL     1      -6.454   0.993   0.950  0.00  0.00    -0.173 OA
ATOM     21  C   UNL     1      -5.279   1.514  -1.357  0.00  0.00    +0.151 C 
ATOM     22  C   UNL     1      -4.556   0.225  -1.814  0.00  0.00    +0.025 C 
ATOM     23  C   UNL     1      -4.941  -0.817  -0.895  0.00  0.00    +0.004 C 
ENDBRANCH  15  16
ENDBRANCH   2  15
TORSDOF 7
