REMARK  Name = 
REMARK  7 active torsions:
REMARK  status: ('A' for Active; 'I' for Inactive)
REMARK    1  A    between atoms: C_5  and  C_6
REMARK    2  A    between atoms: C_6  and  N_7
REMARK    3  A    between atoms: C_9  and  C_10
REMARK    4  A    between atoms: C_10  and  N_12
REMARK    5  A    between atoms: C_13  and  C_15
REMARK    6  A    between atoms: C_15  and  C_16
REMARK    7  A    between atoms: C_16  and  N_17
REMARK                            x       y       z     vdW  Elec       q    Type
REMARK                         _______ _______ _______ _____ _____    ______ ____
ROOT
ATOM      1  C   UNL     1       0.139   1.008   1.248  0.00  0.00    +0.098 C 
ATOM      2  C   UNL     1       0.886  -0.361   1.743  0.00  0.00    +0.024 C 
ENDROOT
BRANCH   1   5
ATOM      3  N   UNL     1       2.358  -0.215  -0.537  0.00  0.00    -0.267 NA
ATOM      4  C   UNL     1       2.454   0.956   0.345  0.00  0.00    +0.076 C 
ATOM      5  C   UNL     1       1.053   1.276  -0.063  0.00  0.00    +0.052 C 
ATOM      6  C   UNL     1       1.025   0.172  -1.032  0.00  0.00    +0.076 C 
BRANCH   3   7
ATOM      7  C   UNL     1       3.370  -0.093  -1.576  0.00  0.00    +0.127 C 
BRANCH   7  11
ATOM      8  C   UNL     1       7.946  -1.320   1.311  0.00  0.00    +0.061 C 
ATOM      9  C   UNL     1       6.819  -1.021   0.395  0.00  0.00    +0.111 A 
ATOM     10  S   UNL     1       5.169  -0.594   0.684  0.00  0.00    -0.053 S 
ATOM     11  C   UNL     1       4.687  -0.453  -0.979  0.00  0.00    +0.127 A 
ATOM     12  N   UNL     1       5.804  -0.738  -1.586  0.00  0.00    -0.144 NA
ATOM     13  N   UNL     1       6.848  -1.016  -0.908  0.00  0.00    -0.146 NA
ENDBRANCH   7  11
ENDBRANCH   3   7
ENDBRANCH   1   5
BRANCH   1  14
ATOM     14  N   UNL     1      -1.011   0.274   0.478  0.00  0.00    -0.207 NA
ATOM     15  C   UNL     1      -2.311   0.664   0.774  0.00  0.00    +0.243 C 
ATOM     16  O   UNL     1      -2.433   1.568   1.640  0.00  0.00    -0.273 OA
BRANCH  15  17
ATOM     17  C   UNL     1      -3.562   0.141   0.189  0.00  0.00    +0.111 C 
BRANCH  17  18
ATOM     18  C   UNL     1      -4.794   0.772   0.761  0.00  0.00    +0.116 C 
BRANCH  18  19
ATOM     19  N   UNL     1      -5.953   0.212   0.120  0.00  0.00    -0.324 N 
ATOM     20  C   UNL     1      -6.665  -0.865   0.456  0.00  0.00    +0.076 A 
ATOM     21  C   UNL     1      -7.705  -1.048  -0.453  0.00  0.00    +0.020 A 
ATOM     22  C   UNL     1      -7.602  -0.032  -1.367  0.00  0.00    +0.020 A 
ATOM     23  C   UNL     1      -6.522   0.715  -0.985  0.00  0.00    +0.076 A 
ENDBRANCH  18  19
ENDBRANCH  17  18
ENDBRANCH  15  17
ENDBRANCH   1  14
TORSDOF 7
