REMARK  Name = 
REMARK  6 active torsions:
REMARK  status: ('A' for Active; 'I' for Inactive)
REMARK    1  A    between atoms: C_2  and  C_3
REMARK    2  A    between atoms: C_3  and  N_4
REMARK    3  A    between atoms: N_4  and  C_18
REMARK    4  A    between atoms: N_7  and  C_8
REMARK    5  A    between atoms: C_8  and  C_9
REMARK    6  A    between atoms: C_9  and  N_11
REMARK                            x       y       z     vdW  Elec       q    Type
REMARK                         _______ _______ _______ _____ _____    ______ ____
ROOT
ATOM      1  N   UNL     1      -0.872   0.637   0.763  0.00  0.00    -0.249 N 
ATOM      2  C   UNL     1       0.224  -0.223   0.940  0.00  0.00    +0.324 C 
ATOM      3  N   UNL     1       1.085  -0.654  -0.102  0.00  0.00    -0.187 NA
ATOM      4  O   UNL     1       0.480  -0.654   2.094  0.00  0.00    -0.251 OA
ENDROOT
BRANCH   1   5
ATOM      5  C   UNL     1      -1.217   1.200  -0.611  0.00  0.00    +0.100 C 
ATOM      6  C   UNL     1      -2.768   1.002  -0.606  0.00  0.00    -0.008 A 
ATOM      7  C   UNL     1      -3.459  -0.055  -0.982  0.00  0.00    -0.025 A 
ATOM      8  C   UNL     1      -4.834  -0.051  -0.919  0.00  0.00    -0.005 A 
ATOM      9  C   UNL     1      -5.503   1.043  -0.469  0.00  0.00    -0.000 A 
ATOM     10  C   UNL     1      -4.816   2.159  -0.070  0.00  0.00    -0.000 A 
ATOM     11  C   UNL     1      -2.898  -1.362  -1.501  0.00  0.00    +0.026 C 
ATOM     12  C   UNL     1      -1.460  -1.313  -1.029  0.00  0.00    +0.007 C 
ATOM     13  C   UNL     1      -3.423   2.130  -0.143  0.00  0.00    -0.003 A 
ATOM     14  C   UNL     1      -0.835  -0.092  -1.501  0.00  0.00    +0.025 C 
ENDBRANCH   1   5
BRANCH   1  15
ATOM     15  C   UNL     1      -1.704   1.055   1.833  0.00  0.00    +0.173 C 
BRANCH  15  17
ATOM     16  C   UNL     1      -3.725  -0.548   2.330  0.00  0.00    -0.012 C 
ATOM     17  C   UNL     1      -2.809   0.180   2.090  0.00  0.00    -0.056 C 
ENDBRANCH  15  17
ENDBRANCH   1  15
BRANCH   3  18
ATOM     18  C   UNL     1       2.200  -1.548   0.173  0.00  0.00    +0.133 C 
BRANCH  18  19
ATOM     19  C   UNL     1       2.908  -1.768  -1.302  0.00  0.00    +0.079 C 
ATOM     20  C   UNL     1       4.049  -2.750  -0.690  0.00  0.00    +0.019 C 
BRANCH  19  21
ATOM     21  N   UNL     1       3.745  -0.473  -1.248  0.00  0.00    -0.272 NA
ATOM     22  C   UNL     1       4.990  -0.587  -0.710  0.00  0.00    +0.072 C 
ATOM     23  C   UNL     1       5.343   0.311   0.427  0.00  0.00    +0.017 C 
ATOM     24  C   UNL     1       4.609   1.613   0.478  0.00  0.00    +0.003 C 
ATOM     25  C   UNL     1       4.527   2.009   1.961  0.00  0.00    +0.000 C 
ATOM     26  C   UNL     1       3.192   1.532  -0.009  0.00  0.00    +0.017 C 
ATOM     27  C   UNL     1       2.974   0.665  -1.195  0.00  0.00    +0.072 C 
ENDBRANCH  19  21
ENDBRANCH  18  19
ENDBRANCH   3  18
TORSDOF 6
