REMARK  Name = 
REMARK  7 active torsions:
REMARK  status: ('A' for Active; 'I' for Inactive)
REMARK    1  A    between atoms: S_2  and  N_5
REMARK    2  A    between atoms: N_5  and  C_6
REMARK    3  A    between atoms: C_6  and  C_7
REMARK    4  A    between atoms: N_15  and  C_16
REMARK    5  A    between atoms: C_16  and  C_17
REMARK    6  A    between atoms: N_21  and  C_22
REMARK    7  A    between atoms: C_22  and  C_23
REMARK                            x       y       z     vdW  Elec       q    Type
REMARK                         _______ _______ _______ _____ _____    ______ ____
ROOT
ATOM      1  C   UNL     1      -3.826  -0.473   1.936  0.00  0.00    +0.126 C 
ATOM      2  N   UNL     1      -3.454  -1.316   0.720  0.00  0.00    -0.258 N 
ATOM      3  C   UNL     1      -2.151  -1.763   0.625  0.00  0.00    +0.323 C 
ATOM      4  N   UNL     1      -1.220  -1.427   1.646  0.00  0.00    -0.188 NA
ATOM      5  O   UNL     1      -1.711  -2.469  -0.330  0.00  0.00    -0.251 OA
ATOM      6  C   UNL     1      -4.517  -1.549  -0.192  0.00  0.00    +0.127 C 
ATOM      7  C   UNL     1      -5.738  -1.982   0.611  0.00  0.00    +0.164 C 
ATOM      8  O   UNL     1      -6.110  -0.918   1.439  0.00  0.00    -0.350 OA
ATOM      9  C   UNL     1      -5.191   0.135   1.286  0.00  0.00    +0.163 C 
ENDROOT
BRANCH   1  10
ATOM     10  C   UNL     1      -2.934   0.836   1.478  0.00  0.00    +0.137 C 
BRANCH  10  11
ATOM     11  N   UNL     1      -2.903   1.047   0.226  0.00  0.00    -0.080 NA
BRANCH  11  13
ATOM     12  C   UNL     1      -0.845   1.579  -1.481  0.00  0.00    +0.197 C 
ATOM     13  S   UNL     1      -2.620   1.627  -1.146  0.00  0.00    +0.059 S 
ATOM     14  O   UNL     1      -3.008   3.089  -1.347  0.00  0.00    -0.156 OA
ATOM     15  O   UNL     1      -3.253   0.900  -2.330  0.00  0.00    -0.156 OA
ENDBRANCH  11  13
ENDBRANCH  10  11
ENDBRANCH   1  10
BRANCH   4  16
ATOM     16  C   UNL     1       0.141  -1.873   1.583  0.00  0.00    +0.118 C 
BRANCH  16  17
ATOM     17  C   UNL     1       0.781  -1.264   0.220  0.00  0.00    +0.038 C 
ATOM     18  C   UNL     1       1.116   0.180   0.916  0.00  0.00    +0.074 C 
ATOM     19  N   UNL     1       2.424   0.551   0.681  0.00  0.00    -0.269 NA
ATOM     20  C   UNL     1       3.287  -0.103   1.679  0.00  0.00    +0.072 C 
ATOM     21  C   UNL     1       2.740  -1.520   1.783  0.00  0.00    +0.017 C 
ATOM     22  C   UNL     1       2.249  -1.938   0.465  0.00  0.00    +0.005 C 
BRANCH  19  23
ATOM     23  C   UNL     1       2.961   0.310  -0.628  0.00  0.00    +0.099 C 
BRANCH  23  24
ATOM     24  C   UNL     1       4.341   0.894  -0.645  0.00  0.00    -0.006 A 
ATOM     25  C   UNL     1       5.402   0.080  -0.266  0.00  0.00    -0.003 A 
ATOM     26  C   UNL     1       6.683   0.583  -0.270  0.00  0.00    -0.000 A 
ATOM     27  C   UNL     1       6.908   1.891  -0.649  0.00  0.00    -0.000 A 
ATOM     28  C   UNL     1       5.875   2.697  -1.022  0.00  0.00    -0.000 A 
ATOM     29  C   UNL     1       4.574   2.196  -1.021  0.00  0.00    -0.003 A 
ENDBRANCH  23  24
ENDBRANCH  19  23
ENDBRANCH  16  17
ENDBRANCH   4  16
TORSDOF 7
