REMARK  Name = 
REMARK  7 active torsions:
REMARK  status: ('A' for Active; 'I' for Inactive)
REMARK    1  A    between atoms: C_2  and  C_3
REMARK    2  A    between atoms: C_3  and  N_4
REMARK    3  A    between atoms: C_7  and  N_8
REMARK    4  A    between atoms: C_10  and  C_11
REMARK    5  A    between atoms: C_11  and  N_13
REMARK    6  A    between atoms: C_14  and  C_16
REMARK    7  A    between atoms: C_16  and  C_17
REMARK                            x       y       z     vdW  Elec       q    Type
REMARK                         _______ _______ _______ _____ _____    ______ ____
ROOT
ATOM      1  N   UNL     1      -1.560  -0.801  -0.055  0.00  0.00    -0.266 NA
ATOM      2  C   UNL     1      -1.725  -2.107  -0.578  0.00  0.00    +0.076 C 
ATOM      3  C   UNL     1      -0.129  -2.006  -0.686  0.00  0.00    +0.052 C 
ATOM      4  C   UNL     1      -0.692  -0.675  -1.247  0.00  0.00    +0.076 C 
ENDROOT
BRANCH   1   8
ATOM      5  N   UNL     1      -4.892   0.001   0.004  0.00  0.00    -0.274 N 
ATOM      6  C   UNL     1      -3.687  -0.234   0.610  0.00  0.00    +0.240 C 
ATOM      7  O   UNL     1      -3.434  -0.698   1.714  0.00  0.00    -0.273 OA
ATOM      8  C   UNL     1      -2.617   0.221  -0.425  0.00  0.00    +0.137 C 
ATOM      9  C   UNL     1      -3.273  -0.543  -1.700  0.00  0.00    +0.047 C 
ATOM     10  C   UNL     1      -4.764  -0.473  -1.344  0.00  0.00    +0.096 C 
BRANCH   5  11
ATOM     11  C   UNL     1      -6.101   0.601   0.586  0.00  0.00    +0.120 C 
BRANCH  11  13
ATOM     12  C   UNL     1      -7.044   2.793  -0.160  0.00  0.00    -0.003 C 
ATOM     13  C   UNL     1      -6.158   2.058   0.442  0.00  0.00    -0.005 C 
ENDBRANCH  11  13
ENDBRANCH   5  11
ENDBRANCH   1   8
BRANCH   3  14
ATOM     14  C   UNL     1       0.253  -1.471   0.787  0.00  0.00    +0.098 C 
ATOM     15  C   UNL     1       0.867  -2.855   1.329  0.00  0.00    +0.024 C 
BRANCH  14  16
ATOM     16  N   UNL     1       1.372  -0.628   0.727  0.00  0.00    -0.207 NA
ATOM     17  C   UNL     1       2.648  -0.362   0.590  0.00  0.00    +0.248 C 
ATOM     18  O   UNL     1       3.342  -1.436   0.399  0.00  0.00    -0.273 OA
BRANCH  17  19
ATOM     19  C   UNL     1       3.258   1.005   0.644  0.00  0.00    +0.137 C 
BRANCH  19  20
ATOM     20  C   UNL     1       4.654   1.169   0.538  0.00  0.00    +0.126 A 
ATOM     21  C   UNL     1       5.489   1.159  -0.561  0.00  0.00    +0.118 A 
ATOM     22  C   UNL     1       5.149   0.959  -1.996  0.00  0.00    +0.057 C 
ATOM     23  N   UNL     1       6.774   1.387  -0.165  0.00  0.00    -0.053 NA
ATOM     24  O   UNL     1       6.742   1.527   1.116  0.00  0.00    -0.242 OA
ATOM     25  N   UNL     1       5.528   1.410   1.575  0.00  0.00    -0.053 NA
ENDBRANCH  19  20
ENDBRANCH  17  19
ENDBRANCH  14  16
ENDBRANCH   3  14
TORSDOF 7
