REMARK  Name = 
REMARK  9 active torsions:
REMARK  status: ('A' for Active; 'I' for Inactive)
REMARK    1  A    between atoms: C_2  and  C_3
REMARK    2  A    between atoms: C_3  and  C_4
REMARK    3  A    between atoms: C_4  and  C_5
REMARK    4  A    between atoms: C_4  and  C_7
REMARK    5  A    between atoms: N_9  and  C_10
REMARK    6  A    between atoms: C_10  and  C_12
REMARK    7  A    between atoms: N_14  and  C_15
REMARK    8  A    between atoms: C_15  and  C_16
REMARK    9  A    between atoms: C_16  and  C_17
REMARK                            x       y       z     vdW  Elec       q    Type
REMARK                         _______ _______ _______ _____ _____    ______ ____
ROOT
ATOM      1  C   UNL     1      -0.393   1.953  -1.049  0.00  0.00    +0.052 C 
ATOM      2  C   UNL     1       0.227   1.345   0.136  0.00  0.00    +0.075 C 
ATOM      3  N   UNL     1       1.175   0.756  -0.787  0.00  0.00    -0.272 NA
ATOM      4  C   UNL     1       1.090   1.970  -1.507  0.00  0.00    +0.075 C 
ENDROOT
BRANCH   1   5
ATOM      5  C   UNL     1      -1.036   0.890  -2.112  0.00  0.00    +0.098 C 
ATOM      6  C   UNL     1      -0.629  -0.510  -1.361  0.00  0.00    +0.024 C 
BRANCH   5   8
ATOM      7  C   UNL     1      -2.830   0.361  -0.365  0.00  0.00    +0.241 C 
ATOM      8  N   UNL     1      -2.487   0.971  -1.562  0.00  0.00    -0.207 NA
ATOM      9  O   UNL     1      -1.983  -0.247   0.263  0.00  0.00    -0.273 OA
BRANCH   7  10
ATOM     10  C   UNL     1      -4.339   0.474   0.152  0.00  0.00    +0.078 C 
BRANCH  10  11
ATOM     11  C   UNL     1      -4.903  -0.753  -0.745  0.00  0.00    +0.009 C 
ATOM     12  C   UNL     1      -6.149  -1.292  -0.177  0.00  0.00    +0.001 C 
ENDBRANCH  10  11
BRANCH  10  13
ATOM     13  C   UNL     1      -4.127  -0.356   1.516  0.00  0.00    +0.009 C 
BRANCH  13  15
ATOM     14  C   UNL     1      -6.364   0.404   2.114  0.00  0.00    +0.000 C 
ATOM     15  C   UNL     1      -5.482  -0.837   1.898  0.00  0.00    +0.000 C 
ENDBRANCH  13  15
ENDBRANCH  10  13
ENDBRANCH   7  10
ENDBRANCH   5   8
ENDBRANCH   1   5
BRANCH   3  16
ATOM     16  C   UNL     1       2.328   0.146  -0.372  0.00  0.00    +0.077 C 
BRANCH  16  17
ATOM     17  C   UNL     1       3.184   0.741   0.673  0.00  0.00    +0.044 C 
BRANCH  17  18
ATOM     18  C   UNL     1       4.339  -0.178   0.884  0.00  0.00    -0.021 A 
ATOM     19  C   UNL     1       5.454   0.019   0.113  0.00  0.00    -0.004 A 
ATOM     20  C   UNL     1       6.551  -0.791   0.249  0.00  0.00    -0.000 A 
ATOM     21  C   UNL     1       6.567  -1.823   1.162  0.00  0.00    -0.000 A 
ATOM     22  C   UNL     1       5.457  -2.036   1.945  0.00  0.00    -0.000 A 
ATOM     23  C   UNL     1       4.352  -1.209   1.796  0.00  0.00    -0.004 A 
ENDBRANCH  17  18
ENDBRANCH  16  17
ENDBRANCH   3  16
TORSDOF 9
