REMARK  Name = 
REMARK  9 active torsions:
REMARK  status: ('A' for Active; 'I' for Inactive)
REMARK    1  A    between atoms: C_2  and  C_3
REMARK    2  A    between atoms: C_3  and  C_4
REMARK    3  A    between atoms: C_4  and  C_5
REMARK    4  A    between atoms: C_4  and  C_7
REMARK    5  A    between atoms: N_9  and  C_10
REMARK    6  A    between atoms: C_10  and  C_12
REMARK    7  A    between atoms: N_14  and  C_15
REMARK    8  A    between atoms: C_15  and  C_16
REMARK    9  A    between atoms: C_18  and  C_19
REMARK                            x       y       z     vdW  Elec       q    Type
REMARK                         _______ _______ _______ _____ _____    ______ ____
ROOT
ATOM      1  C   UNL     1       0.003  -0.718   1.014  0.00  0.00    +0.052 C 
ATOM      2  C   UNL     1       0.564   0.097  -0.158  0.00  0.00    +0.076 C 
ATOM      3  N   UNL     1       0.681   1.197   0.776  0.00  0.00    -0.266 NA
ATOM      4  C   UNL     1       0.934   0.199   1.821  0.00  0.00    +0.076 C 
ENDROOT
BRANCH   1   5
ATOM      5  C   UNL     1      -1.459  -0.004   1.289  0.00  0.00    +0.098 C 
ATOM      6  C   UNL     1      -1.697  -0.821   2.681  0.00  0.00    +0.024 C 
BRANCH   5   8
ATOM      7  C   UNL     1      -3.326  -0.404  -0.235  0.00  0.00    +0.241 C 
ATOM      8  N   UNL     1      -2.244  -1.031   0.427  0.00  0.00    -0.207 NA
ATOM      9  O   UNL     1      -3.519   0.768  -0.081  0.00  0.00    -0.273 OA
BRANCH   7  10
ATOM     10  C   UNL     1      -4.180  -1.375  -1.135  0.00  0.00    +0.078 C 
BRANCH  10  11
ATOM     11  C   UNL     1      -5.041  -1.996   0.094  0.00  0.00    +0.009 C 
ATOM     12  C   UNL     1      -4.154  -3.030   0.747  0.00  0.00    +0.001 C 
ENDBRANCH  10  11
BRANCH  10  13
ATOM     13  C   UNL     1      -5.336  -0.357  -1.610  0.00  0.00    +0.009 C 
BRANCH  13  15
ATOM     14  C   UNL     1      -6.729   1.526  -0.867  0.00  0.00    +0.000 C 
ATOM     15  C   UNL     1      -5.670   0.563  -0.491  0.00  0.00    +0.000 C 
ENDBRANCH  13  15
ENDBRANCH  10  13
ENDBRANCH   7  10
ENDBRANCH   5   8
ENDBRANCH   1   5
BRANCH   3  16
ATOM     16  C   UNL     1       1.833   2.005   0.439  0.00  0.00    +0.141 C 
BRANCH  16  17
ATOM     17  C   UNL     1       2.891   1.041  -0.040  0.00  0.00    +0.178 A 
ATOM     18  N   UNL     1       2.755  -0.013  -0.829  0.00  0.00    -0.130 NA
ATOM     19  N   UNL     1       3.950  -0.560  -0.983  0.00  0.00    -0.132 NA
ATOM     20  C   UNL     1       4.866   0.138  -0.293  0.00  0.00    +0.162 A 
ATOM     21  N   UNL     1       4.188   1.136   0.290  0.00  0.00    -0.211 NA
BRANCH  20  22
ATOM     22  C   UNL     1       6.346  -0.142  -0.197  0.00  0.00    +0.061 C 
ATOM     23  C   UNL     1       7.178   1.011   0.429  0.00  0.00    +0.008 C 
ATOM     24  C   UNL     1       7.169   0.771  -1.063  0.00  0.00    +0.008 C 
ENDBRANCH  20  22
ENDBRANCH  16  17
ENDBRANCH   3  16
TORSDOF 9
