REMARK  Name = 
REMARK  9 active torsions:
REMARK  status: ('A' for Active; 'I' for Inactive)
REMARK    1  A    between atoms: C_2  and  C_3
REMARK    2  A    between atoms: C_3  and  C_4
REMARK    3  A    between atoms: C_4  and  C_5
REMARK    4  A    between atoms: C_5  and  C_6
REMARK    5  A    between atoms: C_6  and  N_7
REMARK    6  A    between atoms: C_6  and  C_21
REMARK    7  A    between atoms: N_10  and  C_11
REMARK    8  A    between atoms: C_11  and  C_12
REMARK    9  A    between atoms: C_12  and  N_14
REMARK                            x       y       z     vdW  Elec       q    Type
REMARK                         _______ _______ _______ _____ _____    ______ ____
ROOT
ATOM      1  N   UNL     1      -1.611   0.487  -0.385  0.00  0.00    -0.184 NA
ATOM      2  C   UNL     1      -0.349  -0.080  -0.695  0.00  0.00    +0.340 C 
ATOM      3  N   UNL     1       0.838   0.159   0.001  0.00  0.00    -0.186 NA
ATOM      4  O   UNL     1      -0.272  -0.857  -1.664  0.00  0.00    -0.249 OA
ENDROOT
BRANCH   1   5
ATOM      5  C   UNL     1      -2.778   0.030  -1.361  0.00  0.00    +0.119 C 
BRANCH   5   6
ATOM      6  C   UNL     1      -3.538  -0.874  -0.335  0.00  0.00    -0.003 A 
ATOM      7  C   UNL     1      -2.840  -1.701   0.491  0.00  0.00    -0.003 A 
ATOM      8  C   UNL     1      -3.558  -2.511   1.404  0.00  0.00    -0.000 A 
ATOM      9  C   UNL     1      -4.934  -2.417   1.408  0.00  0.00    -0.000 A 
ATOM     10  C   UNL     1      -5.651  -1.576   0.569  0.00  0.00    -0.000 A 
ATOM     11  C   UNL     1      -4.896  -0.781  -0.332  0.00  0.00    -0.003 A 
ENDBRANCH   5   6
BRANCH   5  12
ATOM     12  C   UNL     1      -3.648   1.413  -1.093  0.00  0.00    +0.027 C 
BRANCH  12  13
ATOM     13  C   UNL     1      -3.934   1.459   0.356  0.00  0.00    +0.007 C 
BRANCH  13  14
ATOM     14  C   UNL     1      -4.711   2.632   0.821  0.00  0.00    +0.026 C 
BRANCH  14  16
ATOM     15  C   UNL     1      -2.817   3.840  -0.089  0.00  0.00    -0.005 C 
ATOM     16  C   UNL     1      -3.981   3.892   0.514  0.00  0.00    -0.026 C 
ENDBRANCH  14  16
ENDBRANCH  13  14
ENDBRANCH  12  13
ENDBRANCH   5  12
ENDBRANCH   1   5
BRANCH   3  17
ATOM     17  C   UNL     1       2.068  -0.431  -0.353  0.00  0.00    +0.133 C 
BRANCH  17  18
ATOM     18  C   UNL     1       3.196   0.143   0.739  0.00  0.00    +0.079 C 
ATOM     19  C   UNL     1       2.970   1.758   0.323  0.00  0.00    +0.019 C 
BRANCH  18  20
ATOM     20  N   UNL     1       4.388   0.006  -0.316  0.00  0.00    -0.272 NA
ATOM     21  C   UNL     1       4.589  -1.369  -0.533  0.00  0.00    +0.072 C 
ATOM     22  C   UNL     1       5.592  -2.071   0.300  0.00  0.00    +0.017 C 
ATOM     23  C   UNL     1       6.836  -1.205   0.475  0.00  0.00    +0.003 C 
ATOM     24  C   UNL     1       7.252  -0.742  -0.918  0.00  0.00    +0.000 C 
ATOM     25  C   UNL     1       6.329   0.038   1.223  0.00  0.00    +0.017 C 
ATOM     26  C   UNL     1       5.461   0.760   0.224  0.00  0.00    +0.072 C 
ENDBRANCH  18  20
ENDBRANCH  17  18
ENDBRANCH   3  17
TORSDOF 9
