REMARK  Name = 
REMARK  7 active torsions:
REMARK  status: ('A' for Active; 'I' for Inactive)
REMARK    1  A    between atoms: C_2  and  C_3
REMARK    2  A    between atoms: C_3  and  N_4
REMARK    3  A    between atoms: C_7  and  N_8
REMARK    4  A    between atoms: C_10  and  C_11
REMARK    5  A    between atoms: C_11  and  N_13
REMARK    6  A    between atoms: C_14  and  C_16
REMARK    7  A    between atoms: C_16  and  C_17
REMARK                            x       y       z     vdW  Elec       q    Type
REMARK                         _______ _______ _______ _____ _____    ______ ____
ROOT
ATOM      1  N   UNL     1       2.443  -0.873   0.104  0.00  0.00    -0.266 NA
ATOM      2  C   UNL     1       1.585  -1.417  -0.903  0.00  0.00    +0.076 C 
ATOM      3  C   UNL     1       0.564  -0.408  -0.466  0.00  0.00    +0.052 C 
ATOM      4  C   UNL     1       1.272  -0.469   0.910  0.00  0.00    +0.076 C 
ENDROOT
BRANCH   1   8
ATOM      5  N   UNL     1       5.322   0.542  -0.314  0.00  0.00    -0.274 N 
ATOM      6  C   UNL     1       4.235   0.044  -1.028  0.00  0.00    +0.240 C 
ATOM      7  O   UNL     1       4.201  -0.676  -2.009  0.00  0.00    -0.273 OA
ATOM      8  C   UNL     1       2.939   0.559  -0.362  0.00  0.00    +0.137 C 
ATOM      9  C   UNL     1       3.506   0.910   1.089  0.00  0.00    +0.047 C 
ATOM     10  C   UNL     1       4.901   1.286   0.818  0.00  0.00    +0.096 C 
BRANCH   5  11
ATOM     11  C   UNL     1       6.702   0.336  -0.732  0.00  0.00    +0.120 C 
BRANCH  11  13
ATOM     12  C   UNL     1       6.506  -1.700   0.583  0.00  0.00    -0.003 C 
ATOM     13  C   UNL     1       7.240  -0.901  -0.181  0.00  0.00    -0.005 C 
ENDBRANCH  11  13
ENDBRANCH   5  11
ENDBRANCH   1   8
BRANCH   3  14
ATOM     14  C   UNL     1      -0.834  -1.167  -0.158  0.00  0.00    +0.098 C 
ATOM     15  C   UNL     1      -1.325  -1.014  -1.758  0.00  0.00    +0.024 C 
BRANCH  14  16
ATOM     16  N   UNL     1      -1.594   0.212   0.164  0.00  0.00    -0.207 NA
ATOM     17  C   UNL     1      -2.997   0.022   0.119  0.00  0.00    +0.248 C 
ATOM     18  O   UNL     1      -3.476  -1.107  -0.131  0.00  0.00    -0.273 OA
BRANCH  17  19
ATOM     19  C   UNL     1      -3.896   1.157   0.364  0.00  0.00    +0.137 C 
BRANCH  19  20
ATOM     20  C   UNL     1      -5.279   0.670   0.330  0.00  0.00    +0.126 A 
ATOM     21  C   UNL     1      -6.005   0.005   1.310  0.00  0.00    +0.118 A 
ATOM     22  C   UNL     1      -5.446  -0.304   2.659  0.00  0.00    +0.057 C 
ATOM     23  N   UNL     1      -7.190  -0.251   0.768  0.00  0.00    -0.053 NA
ATOM     24  O   UNL     1      -7.259   0.201  -0.457  0.00  0.00    -0.242 OA
ATOM     25  N   UNL     1      -6.114   0.751  -0.720  0.00  0.00    -0.053 NA
ENDBRANCH  19  20
ENDBRANCH  17  19
ENDBRANCH  14  16
ENDBRANCH   3  14
TORSDOF 7
