REMARK  Name = 
REMARK  7 active torsions:
REMARK  status: ('A' for Active; 'I' for Inactive)
REMARK    1  A    between atoms: N_5  and  C_6
REMARK    2  A    between atoms: C_9  and  C_10
REMARK    3  A    between atoms: C_10  and  N_11
REMARK    4  A    between atoms: N_14  and  C_15
REMARK    5  A    between atoms: C_15  and  C_16
REMARK    6  A    between atoms: N_20  and  C_21
REMARK    7  A    between atoms: C_21  and  C_22
REMARK                            x       y       z     vdW  Elec       q    Type
REMARK                         _______ _______ _______ _____ _____    ______ ____
ROOT
ATOM      1  N   UNL     1       0.290  -1.316   1.285  0.00  0.00    -0.182 NA
ATOM      2  C   UNL     1      -0.366  -0.320   0.511  0.00  0.00    +0.340 C 
ATOM      3  N   UNL     1      -1.236   0.558   1.182  0.00  0.00    -0.187 NA
ATOM      4  O   UNL     1      -0.226  -0.169  -0.711  0.00  0.00    -0.249 OA
ENDROOT
BRANCH   1   5
ATOM      5  C   UNL     1       1.183  -2.213   0.585  0.00  0.00    +0.143 C 
BRANCH   5   9
ATOM      6  C   UNL     1       4.877  -0.308  -0.351  0.00  0.00    +0.048 A 
ATOM      7  C   UNL     1       4.604  -1.611  -0.724  0.00  0.00    +0.014 A 
ATOM      8  C   UNL     1       3.411  -2.189  -0.407  0.00  0.00    -0.001 A 
ATOM      9  C   UNL     1       2.447  -1.475   0.298  0.00  0.00    -0.000 A 
ATOM     10  C   UNL     1       2.680  -0.188   0.683  0.00  0.00    -0.001 A 
ATOM     11  C   UNL     1       3.900   0.366   0.346  0.00  0.00    +0.014 A 
BRANCH   6  16
ATOM     12  C   UNL     1       7.603  -0.700   1.458  0.00  0.00    +0.000 C 
ATOM     13  C   UNL     1       8.334   0.296   0.572  0.00  0.00    +0.003 C 
ATOM     14  C   UNL     1       7.663   1.644   0.575  0.00  0.00    +0.021 C 
ATOM     15  C   UNL     1       6.372   1.661  -0.225  0.00  0.00    +0.091 C 
ATOM     16  N   UNL     1       6.124   0.309  -0.674  0.00  0.00    -0.307 N 
ATOM     17  C   UNL     1       7.084  -0.439  -1.435  0.00  0.00    +0.091 C 
ATOM     18  C   UNL     1       8.445  -0.240  -0.841  0.00  0.00    +0.021 C 
ENDBRANCH   6  16
ENDBRANCH   5   9
ENDBRANCH   1   5
BRANCH   3  19
ATOM     19  C   UNL     1      -1.938   1.596   0.460  0.00  0.00    +0.118 C 
BRANCH  19  20
ATOM     20  C   UNL     1      -2.786   2.314   1.644  0.00  0.00    +0.038 C 
ATOM     21  C   UNL     1      -3.990   1.233   1.593  0.00  0.00    +0.074 C 
ATOM     22  N   UNL     1      -4.499   1.149   0.305  0.00  0.00    -0.269 NA
ATOM     23  C   UNL     1      -5.449   2.169   0.034  0.00  0.00    +0.072 C 
ATOM     24  C   UNL     1      -4.958   3.347   0.879  0.00  0.00    +0.017 C 
ATOM     25  C   UNL     1      -3.477   3.403   0.667  0.00  0.00    +0.005 C 
BRANCH  22  26
ATOM     26  C   UNL     1      -4.493  -0.017  -0.429  0.00  0.00    +0.099 C 
BRANCH  26  27
ATOM     27  C   UNL     1      -5.738  -0.786  -0.356  0.00  0.00    -0.006 A 
ATOM     28  C   UNL     1      -5.891  -1.998  -0.984  0.00  0.00    -0.003 A 
ATOM     29  C   UNL     1      -7.084  -2.701  -0.892  0.00  0.00    -0.000 A 
ATOM     30  C   UNL     1      -8.110  -2.151  -0.156  0.00  0.00    -0.000 A 
ATOM     31  C   UNL     1      -7.986  -0.953   0.475  0.00  0.00    -0.000 A 
ATOM     32  C   UNL     1      -6.790  -0.270   0.371  0.00  0.00    -0.003 A 
ENDBRANCH  26  27
ENDBRANCH  22  26
ENDBRANCH  19  20
ENDBRANCH   3  19
TORSDOF 7
