REMARK  Name = 
REMARK  7 active torsions:
REMARK  status: ('A' for Active; 'I' for Inactive)
REMARK    1  A    between atoms: C_6  and  C_7
REMARK    2  A    between atoms: C_7  and  C_8
REMARK    3  A    between atoms: C_8  and  C_9
REMARK    4  A    between atoms: N_11  and  C_12
REMARK    5  A    between atoms: C_12  and  C_14
REMARK    6  A    between atoms: N_16  and  C_17
REMARK    7  A    between atoms: C_17  and  C_18
REMARK                            x       y       z     vdW  Elec       q    Type
REMARK                         _______ _______ _______ _____ _____    ______ ____
ROOT
ATOM      1  C   UNL     1      -0.770  -0.742   0.210  0.00  0.00    +0.242 C 
ATOM      2  N   UNL     1       0.648  -0.752   0.263  0.00  0.00    -0.207 NA
ATOM      3  O   UNL     1      -1.413  -1.108  -0.795  0.00  0.00    -0.273 OA
ENDROOT
BRANCH   2   4
ATOM      4  C   UNL     1       1.383  -1.236  -1.012  0.00  0.00    +0.098 C 
ATOM      5  C   UNL     1       0.517  -2.602  -1.164  0.00  0.00    +0.024 C 
BRANCH   4   6
ATOM      6  C   UNL     1       2.576  -1.994  -0.151  0.00  0.00    +0.052 C 
ATOM      7  C   UNL     1       3.766  -1.845  -1.046  0.00  0.00    +0.076 C 
ATOM      8  N   UNL     1       3.980  -0.579  -0.427  0.00  0.00    -0.260 NA
ATOM      9  C   UNL     1       3.281  -0.962   0.691  0.00  0.00    +0.076 C 
BRANCH   8  10
ATOM     10  C   UNL     1       4.089   0.603  -1.036  0.00  0.00    +0.179 C 
BRANCH  10  11
ATOM     11  C   UNL     1       4.812   1.616  -0.308  0.00  0.00    +0.091 C 
ATOM     12  N   UNL     1       5.404   2.415   0.275  0.00  0.00    -0.194 NA
ENDBRANCH  10  11
ENDBRANCH   8  10
ENDBRANCH   4   6
ENDBRANCH   2   4
BRANCH   1  13
ATOM     13  C   UNL     1      -1.492  -0.277   1.415  0.00  0.00    +0.092 C 
BRANCH  13  14
ATOM     14  C   UNL     1      -2.930  -0.420   1.318  0.00  0.00    +0.044 C 
BRANCH  14  17
ATOM     15  C   UNL     1      -3.119   2.624   1.141  0.00  0.00    +0.052 C 
ATOM     16  C   UNL     1      -3.699   1.701   0.071  0.00  0.00    +0.062 A 
ATOM     17  C   UNL     1      -3.544   0.326   0.202  0.00  0.00    +0.023 A 
ATOM     18  S   UNL     1      -4.352  -0.212  -1.233  0.00  0.00    -0.069 S 
ATOM     19  C   UNL     1      -4.808   1.303  -1.864  0.00  0.00    +0.134 A 
ATOM     20  N   UNL     1      -4.329   2.140  -0.957  0.00  0.00    -0.241 NA
ENDBRANCH  14  17
ENDBRANCH  13  14
ENDBRANCH   1  13
TORSDOF 7
