REMARK  Name = 
REMARK  7 active torsions:
REMARK  status: ('A' for Active; 'I' for Inactive)
REMARK    1  A    between atoms: O_2  and  N_3
REMARK    2  A    between atoms: N_3  and  C_4
REMARK    3  A    between atoms: C_4  and  C_5
REMARK    4  A    between atoms: N_14  and  C_15
REMARK    5  A    between atoms: C_15  and  C_16
REMARK    6  A    between atoms: N_20  and  C_21
REMARK    7  A    between atoms: C_21  and  C_22
REMARK                            x       y       z     vdW  Elec       q    Type
REMARK                         _______ _______ _______ _____ _____    ______ ____
ROOT
ATOM      1  N   UNL     1      -2.925  -1.347  -1.106  0.00  0.00    -0.147 N 
ATOM      2  C   UNL     1      -1.677  -0.734  -1.362  0.00  0.00    +0.346 C 
ATOM      3  N   UNL     1      -0.918  -0.108  -0.328  0.00  0.00    -0.187 NA
ATOM      4  O   UNL     1      -1.169  -0.706  -2.512  0.00  0.00    -0.249 OA
ENDROOT
BRANCH   1   6
ATOM      5  C   UNL     1      -3.888  -1.044  -3.142  0.00  0.00    +0.206 C 
ATOM      6  O   UNL     1      -3.631  -1.925  -2.084  0.00  0.00    -0.259 OA
ENDBRANCH   1   6
BRANCH   3   7
ATOM      7  C   UNL     1       0.356   0.513  -0.622  0.00  0.00    +0.118 C 
BRANCH   7   8
ATOM      8  C   UNL     1       1.295  -0.715  -1.219  0.00  0.00    +0.038 C 
ATOM      9  C   UNL     1       2.694   0.005  -0.730  0.00  0.00    +0.074 C 
ATOM     10  N   UNL     1       3.665  -1.074  -0.930  0.00  0.00    -0.269 NA
ATOM     11  C   UNL     1       3.572  -1.970   0.231  0.00  0.00    +0.072 C 
ATOM     12  C   UNL     1       2.211  -2.658   0.093  0.00  0.00    +0.017 C 
ATOM     13  C   UNL     1       1.163  -1.593   0.172  0.00  0.00    +0.005 C 
BRANCH  10  14
ATOM     14  C   UNL     1       5.008  -0.568  -1.078  0.00  0.00    +0.099 C 
BRANCH  14  15
ATOM     15  C   UNL     1       5.352   0.183   0.152  0.00  0.00    -0.006 A 
ATOM     16  C   UNL     1       5.921  -0.437   1.222  0.00  0.00    -0.003 A 
ATOM     17  C   UNL     1       6.225   0.295   2.345  0.00  0.00    -0.000 A 
ATOM     18  C   UNL     1       5.957   1.657   2.389  0.00  0.00    -0.000 A 
ATOM     19  C   UNL     1       5.380   2.261   1.291  0.00  0.00    -0.000 A 
ATOM     20  C   UNL     1       5.085   1.520   0.186  0.00  0.00    -0.003 A 
ENDBRANCH  14  15
ENDBRANCH  10  14
ENDBRANCH   7   8
ENDBRANCH   3   7
BRANCH   1  21
ATOM     21  C   UNL     1      -3.429  -1.348   0.247  0.00  0.00    +0.152 C 
BRANCH  21  22
ATOM     22  C   UNL     1      -4.237  -0.141   0.550  0.00  0.00    +0.000 A 
ATOM     23  C   UNL     1      -5.514   0.051   0.112  0.00  0.00    -0.002 A 
ATOM     24  C   UNL     1      -6.237   1.190   0.411  0.00  0.00    +0.011 A 
ATOM     25  C   UNL     1      -5.670   2.194   1.182  0.00  0.00    +0.058 A 
ATOM     26 CL   UNL     1      -6.570   3.640   1.572  0.00  0.00    -0.082 Cl
ATOM     27  C   UNL     1      -4.373   2.001   1.628  0.00  0.00    +0.011 A 
ATOM     28  C   UNL     1      -3.645   0.859   1.330  0.00  0.00    -0.002 A 
ENDBRANCH  21  22
ENDBRANCH   1  21
TORSDOF 7
