REMARK  Name = 
REMARK  6 active torsions:
REMARK  status: ('A' for Active; 'I' for Inactive)
REMARK    1  A    between atoms: C_2  and  C_3
REMARK    2  A    between atoms: C_3  and  N_4
REMARK    3  A    between atoms: N_4  and  C_18
REMARK    4  A    between atoms: N_7  and  C_8
REMARK    5  A    between atoms: C_8  and  C_9
REMARK    6  A    between atoms: C_9  and  N_11
REMARK                            x       y       z     vdW  Elec       q    Type
REMARK                         _______ _______ _______ _____ _____    ______ ____
ROOT
ATOM      1  N   UNL     1      -1.349   0.311   0.675  0.00  0.00    -0.249 N 
ATOM      2  C   UNL     1      -0.157   1.083   0.821  0.00  0.00    +0.324 C 
ATOM      3  N   UNL     1       1.062   0.388   0.903  0.00  0.00    -0.187 NA
ATOM      4  O   UNL     1      -0.121   2.317   0.881  0.00  0.00    -0.251 OA
ENDROOT
BRANCH   1   5
ATOM      5  C   UNL     1      -2.644   1.188   0.610  0.00  0.00    +0.100 C 
ATOM      6  C   UNL     1      -3.747   0.068   0.385  0.00  0.00    -0.008 A 
ATOM      7  C   UNL     1      -4.793   0.561  -0.337  0.00  0.00    -0.025 A 
ATOM      8  C   UNL     1      -5.848  -0.323  -0.618  0.00  0.00    -0.005 A 
ATOM      9  C   UNL     1      -5.782  -1.619  -0.162  0.00  0.00    -0.000 A 
ATOM     10  C   UNL     1      -4.697  -2.052   0.562  0.00  0.00    -0.000 A 
ATOM     11  C   UNL     1      -4.923   1.952  -0.844  0.00  0.00    +0.026 C 
ATOM     12  C   UNL     1      -3.605   2.418  -1.352  0.00  0.00    +0.007 C 
ATOM     13  C   UNL     1      -3.688  -1.166   0.817  0.00  0.00    -0.003 A 
ATOM     14  C   UNL     1      -2.457   1.482  -1.037  0.00  0.00    +0.025 C 
ENDBRANCH   1   5
BRANCH   1  15
ATOM     15  C   UNL     1      -1.383  -1.090   0.597  0.00  0.00    +0.173 C 
BRANCH  15  17
ATOM     16  C   UNL     1      -1.181  -1.770  -2.002  0.00  0.00    -0.012 C 
ATOM     17  C   UNL     1      -1.277  -1.473  -0.835  0.00  0.00    -0.056 C 
ENDBRANCH  15  17
ENDBRANCH   1  15
BRANCH   3  18
ATOM     18  C   UNL     1       2.364   1.046   1.055  0.00  0.00    +0.133 C 
BRANCH  18  19
ATOM     19  C   UNL     1       3.314  -0.302   1.109  0.00  0.00    +0.079 C 
ATOM     20  C   UNL     1       2.872  -0.834  -0.378  0.00  0.00    +0.019 C 
BRANCH  19  21
ATOM     21  N   UNL     1       4.601   0.432   0.607  0.00  0.00    -0.272 NA
ATOM     22  C   UNL     1       4.442   0.876  -0.703  0.00  0.00    +0.072 C 
ATOM     23  C   UNL     1       4.719  -0.118  -1.795  0.00  0.00    +0.017 C 
ATOM     24  C   UNL     1       5.896  -1.025  -1.514  0.00  0.00    +0.003 C 
ATOM     25  C   UNL     1       7.122  -0.149  -1.365  0.00  0.00    +0.000 C 
ATOM     26  C   UNL     1       5.632  -1.663  -0.162  0.00  0.00    +0.017 C 
ATOM     27  C   UNL     1       5.629  -0.539   0.847  0.00  0.00    +0.072 C 
ENDBRANCH  19  21
ENDBRANCH  18  19
ENDBRANCH   3  18
TORSDOF 6
