REMARK  Name = 
REMARK  7 active torsions:
REMARK  status: ('A' for Active; 'I' for Inactive)
REMARK    1  A    between atoms: N_5  and  C_6
REMARK    2  A    between atoms: C_9  and  C_10
REMARK    3  A    between atoms: C_10  and  N_11
REMARK    4  A    between atoms: N_14  and  C_15
REMARK    5  A    between atoms: C_15  and  C_16
REMARK    6  A    between atoms: N_20  and  C_21
REMARK    7  A    between atoms: C_21  and  C_22
REMARK                            x       y       z     vdW  Elec       q    Type
REMARK                         _______ _______ _______ _____ _____    ______ ____
ROOT
ATOM      1  N   UNL     1       0.711  -2.613   1.255  0.00  0.00    -0.182 NA
ATOM      2  C   UNL     1      -0.123  -1.816   0.404  0.00  0.00    +0.340 C 
ATOM      3  N   UNL     1      -1.313  -1.209   0.848  0.00  0.00    -0.187 NA
ATOM      4  O   UNL     1       0.162  -1.610  -0.802  0.00  0.00    -0.249 OA
ENDROOT
BRANCH   1   5
ATOM      5  C   UNL     1       1.911  -3.219   0.780  0.00  0.00    +0.143 C 
BRANCH   5   9
ATOM      6  C   UNL     1       4.881  -0.210   0.457  0.00  0.00    +0.048 A 
ATOM      7  C   UNL     1       3.600   0.103   0.762  0.00  0.00    +0.014 A 
ATOM      8  C   UNL     1       2.647  -0.881   0.865  0.00  0.00    -0.001 A 
ATOM      9  C   UNL     1       2.968  -2.200   0.662  0.00  0.00    -0.000 A 
ATOM     10  C   UNL     1       4.271  -2.532   0.350  0.00  0.00    -0.001 A 
ATOM     11  C   UNL     1       5.213  -1.551   0.249  0.00  0.00    +0.014 A 
BRANCH   6  16
ATOM     12  C   UNL     1       7.879   3.485  -2.098  0.00  0.00    +0.000 C 
ATOM     13  C   UNL     1       7.440   2.676  -0.888  0.00  0.00    +0.003 C 
ATOM     14  C   UNL     1       7.747   1.205  -1.090  0.00  0.00    +0.021 C 
ATOM     15  C   UNL     1       7.231   0.431   0.084  0.00  0.00    +0.091 C 
ATOM     16  N   UNL     1       5.874   0.786   0.350  0.00  0.00    -0.307 N 
ATOM     17  C   UNL     1       5.501   2.172   0.515  0.00  0.00    +0.091 C 
ATOM     18  C   UNL     1       5.924   2.886  -0.775  0.00  0.00    +0.021 C 
ENDBRANCH   6  16
ENDBRANCH   5   9
ENDBRANCH   1   5
BRANCH   3  19
ATOM     19  C   UNL     1      -2.191  -0.397   0.038  0.00  0.00    +0.118 C 
BRANCH  19  20
ATOM     20  C   UNL     1      -2.702  -1.324  -1.189  0.00  0.00    +0.038 C 
ATOM     21  C   UNL     1      -3.890  -2.045  -0.375  0.00  0.00    +0.074 C 
ATOM     22  N   UNL     1      -4.905  -1.178  -0.012  0.00  0.00    -0.269 NA
ATOM     23  C   UNL     1      -5.793  -1.016  -1.178  0.00  0.00    +0.072 C 
ATOM     24  C   UNL     1      -4.850  -0.919  -2.362  0.00  0.00    +0.017 C 
ATOM     25  C   UNL     1      -3.619  -0.177  -1.874  0.00  0.00    +0.005 C 
BRANCH  22  26
ATOM     26  C   UNL     1      -4.540   0.144   0.407  0.00  0.00    +0.099 C 
BRANCH  26  27
ATOM     27  C   UNL     1      -5.617   1.003   0.797  0.00  0.00    -0.006 A 
ATOM     28  C   UNL     1      -6.914   0.561   0.791  0.00  0.00    -0.003 A 
ATOM     29  C   UNL     1      -7.979   1.363   1.162  0.00  0.00    -0.000 A 
ATOM     30  C   UNL     1      -7.716   2.650   1.551  0.00  0.00    -0.000 A 
ATOM     31  C   UNL     1      -6.433   3.135   1.573  0.00  0.00    -0.000 A 
ATOM     32  C   UNL     1      -5.374   2.295   1.190  0.00  0.00    -0.003 A 
ENDBRANCH  26  27
ENDBRANCH  22  26
ENDBRANCH  19  20
ENDBRANCH   3  19
TORSDOF 7
