REMARK  Name = 
REMARK  6 active torsions:
REMARK  status: ('A' for Active; 'I' for Inactive)
REMARK    1  A    between atoms: C_2  and  C_3
REMARK    2  A    between atoms: C_6  and  N_7
REMARK    3  A    between atoms: N_10  and  C_11
REMARK    4  A    between atoms: C_11  and  C_12
REMARK    5  A    between atoms: N_16  and  C_17
REMARK    6  A    between atoms: C_17  and  C_18
REMARK                            x       y       z     vdW  Elec       q    Type
REMARK                         _______ _______ _______ _____ _____    ______ ____
ROOT
ATOM      1  C   UNL     1      -0.441   2.655  -0.637  0.00  0.00    +0.118 C 
ENDROOT
BRANCH   1   2
ATOM      2  C   UNL     1      -1.714   1.715  -0.848  0.00  0.00    +0.038 C 
ATOM      3  C   UNL     1      -1.188   0.412  -0.040  0.00  0.00    +0.074 C 
ATOM      4  N   UNL     1      -2.457  -0.316   0.092  0.00  0.00    -0.269 NA
ATOM      5  C   UNL     1      -2.944  -0.418  -1.285  0.00  0.00    +0.072 C 
ATOM      6  C   UNL     1      -1.821  -0.263  -2.287  0.00  0.00    +0.017 C 
ATOM      7  C   UNL     1      -1.251   1.125  -2.333  0.00  0.00    +0.005 C 
BRANCH   4   8
ATOM      8  C   UNL     1      -3.299   0.622   0.849  0.00  0.00    +0.099 C 
BRANCH   8   9
ATOM      9  C   UNL     1      -4.708   0.178   0.892  0.00  0.00    -0.006 A 
ATOM     10  C   UNL     1      -5.114  -0.584   1.948  0.00  0.00    -0.003 A 
ATOM     11  C   UNL     1      -6.418  -1.060   2.097  0.00  0.00    -0.000 A 
ATOM     12  C   UNL     1      -7.358  -0.751   1.131  0.00  0.00    -0.000 A 
ATOM     13  C   UNL     1      -6.954   0.018   0.064  0.00  0.00    -0.000 A 
ATOM     14  C   UNL     1      -5.649   0.485  -0.069  0.00  0.00    -0.003 A 
ENDBRANCH   8   9
ENDBRANCH   4   8
ENDBRANCH   1   2
BRANCH   1  17
ATOM     15  N   UNL     1       2.927   0.881  -0.245  0.00  0.00    -0.189 NA
ATOM     16  C   UNL     1       1.577   1.240   0.110  0.00  0.00    +0.339 C 
ATOM     17  N   UNL     1       0.778   2.111  -0.609  0.00  0.00    -0.187 NA
ATOM     18  O   UNL     1       1.075   0.745   1.130  0.00  0.00    -0.249 OA
BRANCH  15  22
ATOM     19  C   UNL     1       6.251  -0.798  -1.090  0.00  0.00    +0.065 C 
ATOM     20  C   UNL     1       5.455   0.609  -0.742  0.00  0.00    +0.015 C 
ATOM     21  C   UNL     1       5.072   0.572   0.673  0.00  0.00    +0.023 C 
ATOM     22  C   UNL     1       3.581  -0.142   0.775  0.00  0.00    +0.097 C 
ATOM     23  C   UNL     1       3.868  -1.271  -0.407  0.00  0.00    +0.023 C 
ATOM     24  C   UNL     1       5.259  -1.757  -0.178  0.00  0.00    +0.015 C 
BRANCH  19  26
ATOM     25  C   UNL     1       8.153  -0.476   0.937  0.00  0.00    -0.014 C 
ATOM     26  C   UNL     1       7.320  -0.612   0.071  0.00  0.00    -0.079 C 
ENDBRANCH  19  26
ENDBRANCH  15  22
ENDBRANCH   1  17
TORSDOF 6
