REMARK  Name = 
REMARK  7 active torsions:
REMARK  status: ('A' for Active; 'I' for Inactive)
REMARK    1  A    between atoms: C_2  and  N_3
REMARK    2  A    between atoms: C_2  and  C_13
REMARK    3  A    between atoms: C_4  and  C_6
REMARK    4  A    between atoms: N_8  and  C_9
REMARK    5  A    between atoms: C_9  and  C_10
REMARK    6  A    between atoms: N_15  and  C_16
REMARK    7  A    between atoms: C_16  and  C_17
REMARK                            x       y       z     vdW  Elec       q    Type
REMARK                         _______ _______ _______ _____ _____    ______ ____
ROOT
ATOM      1  C   UNL     1       0.450   0.001   2.198  0.00  0.00    +0.024 C 
ATOM      2  C   UNL     1       0.650   0.059   0.568  0.00  0.00    +0.098 C 
ENDROOT
BRANCH   2   3
ATOM      3  C   UNL     1       0.555  -1.584   0.400  0.00  0.00    +0.052 C 
ATOM      4  C   UNL     1       2.066  -1.905   0.334  0.00  0.00    +0.076 C 
ATOM      5  N   UNL     1       2.149  -1.353  -0.992  0.00  0.00    -0.265 NA
ATOM      6  C   UNL     1       0.724  -1.732  -1.126  0.00  0.00    +0.076 C 
BRANCH   5   7
ATOM      7  C   UNL     1       2.249   0.045  -1.164  0.00  0.00    +0.161 C 
BRANCH   7   8
ATOM      8  C   UNL     1       3.577   0.660  -1.035  0.00  0.00    +0.266 C 
ATOM      9  N   UNL     1       4.792  -0.022  -0.748  0.00  0.00    -0.124 NA
ATOM     10  C   UNL     1       6.032   0.682  -0.641  0.00  0.00    +0.366 C 
ATOM     11  O   UNL     1       6.050   1.930  -0.805  0.00  0.00    -0.247 OA
ATOM     12  N   UNL     1       7.269   0.067  -0.360  0.00  0.00    -0.068 NA
ATOM     13  O   UNL     1       3.667   1.901  -1.187  0.00  0.00    -0.271 OA
ENDBRANCH   7   8
ENDBRANCH   5   7
ENDBRANCH   2   3
BRANCH   2  14
ATOM     14  N   UNL     1      -0.831   0.327   0.191  0.00  0.00    -0.199 NA
ATOM     15  C   UNL     1      -1.893   0.082   1.019  0.00  0.00    +0.320 C 
ATOM     16  O   UNL     1      -1.641  -0.396   2.168  0.00  0.00    -0.263 OA
BRANCH  15  17
ATOM     17  C   UNL     1      -3.257   0.360   0.589  0.00  0.00    +0.320 C 
ATOM     18  N   UNL     1      -4.371   0.120   1.397  0.00  0.00    -0.198 NA
ATOM     19  O   UNL     1      -3.424   0.832  -0.546  0.00  0.00    -0.263 OA
BRANCH  18  20
ATOM     20  C   UNL     1      -5.750   0.330   1.125  0.00  0.00    +0.116 C 
BRANCH  20  21
ATOM     21  C   UNL     1      -6.306  -0.456  -0.010  0.00  0.00    +0.022 C 
ATOM     22  C   UNL     1      -7.060   0.294  -1.064  0.00  0.00    +0.002 C 
ATOM     23  C   UNL     1      -5.697  -0.241  -1.402  0.00  0.00    +0.002 C 
ENDBRANCH  20  21
ENDBRANCH  18  20
ENDBRANCH  15  17
ENDBRANCH   2  14
TORSDOF 7
