REMARK  Name = 
REMARK  7 active torsions:
REMARK  status: ('A' for Active; 'I' for Inactive)
REMARK    1  A    between atoms: O_2  and  C_3
REMARK    2  A    between atoms: C_3  and  C_5
REMARK    3  A    between atoms: C_10  and  N_11
REMARK    4  A    between atoms: N_14  and  C_15
REMARK    5  A    between atoms: C_15  and  C_16
REMARK    6  A    between atoms: N_20  and  C_21
REMARK    7  A    between atoms: C_21  and  C_22
REMARK                            x       y       z     vdW  Elec       q    Type
REMARK                         _______ _______ _______ _____ _____    ______ ____
ROOT
ATOM      1  N   UNL     1       2.151   0.558  -0.396  0.00  0.00    -0.189 NA
ATOM      2  C   UNL     1       0.844   0.868  -0.844  0.00  0.00    +0.339 C 
ATOM      3  N   UNL     1       0.288   0.462  -2.088  0.00  0.00    -0.187 NA
ATOM      4  O   UNL     1       0.118   1.547  -0.094  0.00  0.00    -0.249 OA
ENDROOT
BRANCH   1  11
ATOM      5  C   UNL     1       6.498  -0.292  -0.051  0.00  0.00    +0.104 C 
ATOM      6  C   UNL     1       5.376   0.095  -0.880  0.00  0.00    +0.038 C 
ATOM      7  C   UNL     1       4.439  -0.384   0.203  0.00  0.00    +0.095 C 
ATOM      8  O   UNL     1       3.389  -1.201  -0.112  0.00  0.00    -0.358 OA
ATOM      9  C   UNL     1       2.676  -1.424   1.039  0.00  0.00    +0.144 C 
ATOM     10  C   UNL     1       2.125  -0.307   1.781  0.00  0.00    +0.054 C 
ATOM     11  C   UNL     1       2.528   1.101   1.017  0.00  0.00    +0.102 C 
ATOM     12  C   UNL     1       4.106   0.751   1.034  0.00  0.00    +0.049 C 
ATOM     13  C   UNL     1       5.561  -1.274   0.683  0.00  0.00    +0.038 C 
BRANCH   5  14
ATOM     14  C   UNL     1       7.148   0.470   0.976  0.00  0.00    +0.317 C 
ATOM     15  O   UNL     1       8.424   0.509   0.858  0.00  0.00    -0.250 OA
BRANCH  14  17
ATOM     16  C   UNL     1       7.468   1.859   2.976  0.00  0.00    +0.256 C 
ATOM     17  O   UNL     1       6.661   1.158   2.054  0.00  0.00    -0.444 OA
ENDBRANCH  14  17
ENDBRANCH   5  14
ENDBRANCH   1  11
BRANCH   3  18
ATOM     18  C   UNL     1      -1.076   0.873  -2.385  0.00  0.00    +0.118 C 
BRANCH  18  19
ATOM     19  C   UNL     1      -1.994   0.239  -1.215  0.00  0.00    +0.038 C 
ATOM     20  C   UNL     1      -3.347   0.188  -2.140  0.00  0.00    +0.074 C 
ATOM     21  N   UNL     1      -4.345  -0.456  -1.321  0.00  0.00    -0.269 NA
ATOM     22  C   UNL     1      -3.865  -1.466  -0.468  0.00  0.00    +0.072 C 
ATOM     23  C   UNL     1      -2.568  -2.100  -0.721  0.00  0.00    +0.017 C 
ATOM     24  C   UNL     1      -1.606  -1.292  -1.538  0.00  0.00    +0.005 C 
BRANCH  21  25
ATOM     25  C   UNL     1      -5.223   0.500  -0.683  0.00  0.00    +0.099 C 
BRANCH  25  26
ATOM     26  C   UNL     1      -6.433  -0.120  -0.121  0.00  0.00    -0.006 A 
ATOM     27  C   UNL     1      -7.647  -0.006  -0.797  0.00  0.00    -0.003 A 
ATOM     28  C   UNL     1      -8.813  -0.553  -0.309  0.00  0.00    -0.000 A 
ATOM     29  C   UNL     1      -8.809  -1.245   0.895  0.00  0.00    -0.000 A 
ATOM     30  C   UNL     1      -7.610  -1.365   1.577  0.00  0.00    -0.000 A 
ATOM     31  C   UNL     1      -6.463  -0.813   1.071  0.00  0.00    -0.003 A 
ENDBRANCH  25  26
ENDBRANCH  21  25
ENDBRANCH  18  19
ENDBRANCH   3  18
TORSDOF 7
