REMARK  Name = 
REMARK  9 active torsions:
REMARK  status: ('A' for Active; 'I' for Inactive)
REMARK    1  A    between atoms: C_2  and  C_3
REMARK    2  A    between atoms: C_3  and  C_4
REMARK    3  A    between atoms: C_4  and  C_5
REMARK    4  A    between atoms: C_4  and  C_7
REMARK    5  A    between atoms: N_9  and  C_10
REMARK    6  A    between atoms: C_10  and  C_12
REMARK    7  A    between atoms: N_14  and  C_15
REMARK    8  A    between atoms: C_15  and  C_16
REMARK    9  A    between atoms: C_18  and  C_19
REMARK                            x       y       z     vdW  Elec       q    Type
REMARK                         _______ _______ _______ _____ _____    ______ ____
ROOT
ATOM      1  C   UNL     1       0.187  -0.734  -0.457  0.00  0.00    +0.052 C 
ATOM      2  C   UNL     1      -0.957  -0.548   0.551  0.00  0.00    +0.076 C 
ATOM      3  N   UNL     1      -1.153  -1.997   0.380  0.00  0.00    -0.266 NA
ATOM      4  C   UNL     1      -0.809  -1.723  -1.021  0.00  0.00    +0.076 C 
ENDROOT
BRANCH   1   5
ATOM      5  C   UNL     1       1.191  -1.714   0.409  0.00  0.00    +0.098 C 
ATOM      6  C   UNL     1       2.032  -2.179  -0.876  0.00  0.00    +0.024 C 
BRANCH   5   8
ATOM      7  C   UNL     1       3.367  -0.349   0.304  0.00  0.00    +0.241 C 
ATOM      8  N   UNL     1       2.099  -0.575   0.878  0.00  0.00    -0.207 NA
ATOM      9  O   UNL     1       3.763  -1.089  -0.585  0.00  0.00    -0.273 OA
BRANCH   7  10
ATOM     10  C   UNL     1       4.220   0.860   0.840  0.00  0.00    +0.078 C 
BRANCH  10  11
ATOM     11  C   UNL     1       5.563   0.565   0.036  0.00  0.00    +0.009 C 
ATOM     12  C   UNL     1       6.230  -0.493   0.942  0.00  0.00    +0.001 C 
ENDBRANCH  10  11
BRANCH  10  13
ATOM     13  C   UNL     1       3.623   1.955  -0.150  0.00  0.00    +0.009 C 
BRANCH  13  15
ATOM     14  C   UNL     1       5.931   2.640  -0.740  0.00  0.00    +0.000 C 
ATOM     15  C   UNL     1       4.609   3.054  -0.192  0.00  0.00    +0.000 C 
ENDBRANCH  13  15
ENDBRANCH  10  13
ENDBRANCH   7  10
ENDBRANCH   5   8
ENDBRANCH   1   5
BRANCH   3  16
ATOM     16  C   UNL     1      -2.552  -2.365   0.431  0.00  0.00    +0.141 C 
BRANCH  16  17
ATOM     17  C   UNL     1      -3.335  -1.220  -0.095  0.00  0.00    +0.178 A 
ATOM     18  N   UNL     1      -3.546  -0.835  -1.361  0.00  0.00    -0.130 NA
ATOM     19  N   UNL     1      -4.287   0.226  -1.371  0.00  0.00    -0.132 NA
ATOM     20  C   UNL     1      -4.565   0.537  -0.077  0.00  0.00    +0.162 A 
ATOM     21  N   UNL     1      -3.976  -0.358   0.712  0.00  0.00    -0.211 NA
BRANCH  20  22
ATOM     22  C   UNL     1      -5.375   1.661   0.399  0.00  0.00    +0.061 C 
ATOM     23  C   UNL     1      -5.563   2.842  -0.551  0.00  0.00    +0.008 C 
ATOM     24  C   UNL     1      -6.698   1.839  -0.238  0.00  0.00    +0.008 C 
ENDBRANCH  20  22
ENDBRANCH  16  17
ENDBRANCH   3  16
TORSDOF 9
