REMARK  Name = 
REMARK  6 active torsions:
REMARK  status: ('A' for Active; 'I' for Inactive)
REMARK    1  A    between atoms: C_6  and  C_7
REMARK    2  A    between atoms: C_10  and  C_11
REMARK    3  A    between atoms: C_11  and  C_12
REMARK    4  A    between atoms: N_18  and  C_19
REMARK    5  A    between atoms: C_19  and  C_20
REMARK    6  A    between atoms: C_20  and  N_22
REMARK                            x       y       z     vdW  Elec       q    Type
REMARK                         _______ _______ _______ _____ _____    ______ ____
ROOT
ATOM      1  C   UNL     1      -0.841   1.101  -1.338  0.00  0.00    +0.013 C 
ATOM      2  C   UNL     1      -1.131   0.117  -0.312  0.00  0.00    +0.022 C 
ATOM      3  C   UNL     1       0.144  -0.512   0.181  0.00  0.00    +0.095 C 
ATOM      4  N   UNL     1       1.160   0.463   0.493  0.00  0.00    -0.263 N 
ATOM      5  C   UNL     1       2.218   0.023   1.373  0.00  0.00    +0.323 C 
ATOM      6  N   UNL     1       3.273   0.801   1.778  0.00  0.00    -0.187 NA
ATOM      7  O   UNL     1       2.170  -1.159   1.801  0.00  0.00    -0.251 OA
ATOM      8  C   UNL     1       1.132   1.808  -0.039  0.00  0.00    +0.095 C 
ATOM      9  C   UNL     1       0.391   1.866  -1.337  0.00  0.00    +0.022 C 
ENDROOT
BRANCH   1  10
ATOM     10  C   UNL     1      -1.876   1.421  -2.336  0.00  0.00    +0.088 C 
BRANCH  10  13
ATOM     11  C   UNL     1      -4.955  -0.313  -1.520  0.00  0.00    +0.221 A 
ATOM     12  N   UNL     1      -4.113   0.734  -1.402  0.00  0.00    -0.189 NA
ATOM     13  C   UNL     1      -3.034   0.534  -2.168  0.00  0.00    +0.237 A 
ATOM     14  O   UNL     1      -3.203  -0.618  -2.753  0.00  0.00    -0.337 OA
ATOM     15  N   UNL     1      -4.355  -1.149  -2.378  0.00  0.00    -0.054 NA
BRANCH  11  19
ATOM     16  C   UNL     1      -8.456   1.390   1.591  0.00  0.00    +0.031 C 
ATOM     17  C   UNL     1      -7.934   0.361   0.663  0.00  0.00    -0.019 A 
ATOM     18  C   UNL     1      -6.724   0.493   0.020  0.00  0.00    +0.018 A 
ATOM     19  C   UNL     1      -6.237  -0.467  -0.845  0.00  0.00    +0.120 A 
ATOM     20  N   UNL     1      -6.977  -1.568  -1.061  0.00  0.00    -0.241 NA
ATOM     21  C   UNL     1      -8.150  -1.753  -0.472  0.00  0.00    +0.099 A 
ATOM     22  C   UNL     1      -8.657  -0.808   0.396  0.00  0.00    +0.016 A 
ENDBRANCH  11  19
ENDBRANCH  10  13
ENDBRANCH   1  10
BRANCH   6  23
ATOM     23  C   UNL     1       4.343   0.673   2.537  0.00  0.00    +0.133 C 
BRANCH  23  24
ATOM     24  C   UNL     1       5.520  -0.346   2.235  0.00  0.00    +0.079 C 
ATOM     25  C   UNL     1       4.640  -1.696   2.317  0.00  0.00    +0.019 C 
BRANCH  24  26
ATOM     26  N   UNL     1       5.515  -0.285   0.662  0.00  0.00    -0.272 NA
ATOM     27  C   UNL     1       6.277   0.962   0.469  0.00  0.00    +0.072 C 
ATOM     28  C   UNL     1       7.618   0.879   1.172  0.00  0.00    +0.017 C 
ATOM     29  C   UNL     1       8.523  -0.169   0.558  0.00  0.00    +0.003 C 
ATOM     30  C   UNL     1       9.665   0.402  -0.213  0.00  0.00    +0.000 C 
ATOM     31  C   UNL     1       7.642  -0.973  -0.398  0.00  0.00    +0.017 C 
ATOM     32  C   UNL     1       6.413  -1.368   0.326  0.00  0.00    +0.072 C 
ENDBRANCH  24  26
ENDBRANCH  23  24
ENDBRANCH   6  23
TORSDOF 6
