REMARK  Name = 
REMARK  6 active torsions:
REMARK  status: ('A' for Active; 'I' for Inactive)
REMARK    1  A    between atoms: C_6  and  C_7
REMARK    2  A    between atoms: C_7  and  N_8
REMARK    3  A    between atoms: C_10  and  C_11
REMARK    4  A    between atoms: C_11  and  N_13
REMARK    5  A    between atoms: C_14  and  C_16
REMARK    6  A    between atoms: C_16  and  C_18
REMARK                            x       y       z     vdW  Elec       q    Type
REMARK                         _______ _______ _______ _____ _____    ______ ____
ROOT
ATOM      1  C   UNL     1      -0.364   0.105   0.746  0.00  0.00    +0.098 C 
ATOM      2  C   UNL     1      -1.327   1.404   0.574  0.00  0.00    +0.024 C 
ENDROOT
BRANCH   1   5
ATOM      3  N   UNL     1      -2.684  -0.320  -1.617  0.00  0.00    -0.269 NA
ATOM      4  C   UNL     1      -1.329   0.177  -1.665  0.00  0.00    +0.075 C 
ATOM      5  C   UNL     1      -0.862  -0.682  -0.583  0.00  0.00    +0.052 C 
ATOM      6  C   UNL     1      -2.359  -0.878  -0.315  0.00  0.00    +0.075 C 
BRANCH   3   7
ATOM      7  C   UNL     1      -3.618   0.776  -1.475  0.00  0.00    +0.104 C 
BRANCH   7  10
ATOM      8  C   UNL     1      -6.252   2.320  -0.725  0.00  0.00    +0.055 C 
ATOM      9  C   UNL     1      -5.990   0.889  -0.519  0.00  0.00    +0.098 A 
ATOM     10  C   UNL     1      -4.851   0.195  -0.837  0.00  0.00    +0.051 A 
ATOM     11  C   UNL     1      -5.093  -1.104  -0.452  0.00  0.00    +0.210 A 
ATOM     12  O   UNL     1      -6.294  -1.193   0.063  0.00  0.00    -0.351 OA
ATOM     13  N   UNL     1      -6.830  -0.015   0.025  0.00  0.00    -0.082 NA
ENDBRANCH   7  10
ENDBRANCH   3   7
ENDBRANCH   1   5
BRANCH   1  14
ATOM     14  N   UNL     1       0.837   0.773   0.010  0.00  0.00    -0.207 NA
ATOM     15  C   UNL     1       2.113   0.407   0.380  0.00  0.00    +0.245 C 
ATOM     16  O   UNL     1       2.322  -0.423   1.264  0.00  0.00    -0.273 OA
BRANCH  15  17
ATOM     17  C   UNL     1       3.367   1.020  -0.301  0.00  0.00    +0.103 C 
ATOM     18  C   UNL     1       3.365   0.091  -1.621  0.00  0.00    +0.014 C 
BRANCH  17  19
ATOM     19  C   UNL     1       4.486   0.239   0.489  0.00  0.00    +0.017 A 
ATOM     20  C   UNL     1       5.149  -0.877   0.192  0.00  0.00    +0.079 A 
ATOM     21  C   UNL     1       4.958  -1.684  -1.052  0.00  0.00    +0.054 C 
ATOM     22  N   UNL     1       5.999  -1.127   1.204  0.00  0.00    -0.153 NA
ATOM     23  N   UNL     1       5.868  -0.188   2.110  0.00  0.00    -0.153 NA
ATOM     24  C   UNL     1       4.942   0.683   1.713  0.00  0.00    +0.079 A 
ATOM     25  C   UNL     1       4.445   1.908   2.391  0.00  0.00    +0.054 C 
ENDBRANCH  17  19
ENDBRANCH  15  17
ENDBRANCH   1  14
TORSDOF 6
