REMARK  Name = 
REMARK  7 active torsions:
REMARK  status: ('A' for Active; 'I' for Inactive)
REMARK    1  A    between atoms: C_7  and  C_8
REMARK    2  A    between atoms: C_8  and  N_9
REMARK    3  A    between atoms: C_11  and  C_12
REMARK    4  A    between atoms: C_12  and  N_14
REMARK    5  A    between atoms: C_15  and  C_17
REMARK    6  A    between atoms: C_17  and  C_18
REMARK    7  A    between atoms: C_18  and  N_19
REMARK                            x       y       z     vdW  Elec       q    Type
REMARK                         _______ _______ _______ _____ _____    ______ ____
ROOT
ATOM      1  N   UNL     1       2.393   0.270  -1.010  0.00  0.00    -0.269 NA
ATOM      2  C   UNL     1       1.062   0.832  -1.195  0.00  0.00    +0.075 C 
ATOM      3  C   UNL     1       0.915   0.778   0.283  0.00  0.00    +0.052 C 
ATOM      4  C   UNL     1       2.019  -0.255   0.333  0.00  0.00    +0.075 C 
ENDROOT
BRANCH   3   5
ATOM      5  C   UNL     1      -0.473   0.091   0.754  0.00  0.00    +0.098 C 
ATOM      6  C   UNL     1      -0.504  -1.027  -0.422  0.00  0.00    +0.024 C 
BRANCH   5   7
ATOM      7  N   UNL     1      -1.385   1.099   0.004  0.00  0.00    -0.207 NA
ATOM      8  C   UNL     1      -2.714   0.624  -0.246  0.00  0.00    +0.243 C 
ATOM      9  O   UNL     1      -3.048  -0.535   0.135  0.00  0.00    -0.273 OA
BRANCH   8  10
ATOM     10  C   UNL     1      -3.622   1.546  -0.952  0.00  0.00    +0.111 C 
BRANCH  10  11
ATOM     11  C   UNL     1      -4.970   0.962  -1.196  0.00  0.00    +0.116 C 
BRANCH  11  12
ATOM     12  N   UNL     1      -5.666   0.614   0.003  0.00  0.00    -0.324 N 
ATOM     13  C   UNL     1      -5.702  -0.545   0.684  0.00  0.00    +0.076 A 
ATOM     14  C   UNL     1      -6.522  -0.414   1.765  0.00  0.00    +0.020 A 
ATOM     15  C   UNL     1      -7.014   0.884   1.752  0.00  0.00    +0.020 A 
ATOM     16  C   UNL     1      -6.470   1.492   0.657  0.00  0.00    +0.076 A 
ENDBRANCH  11  12
ENDBRANCH  10  11
ENDBRANCH   8  10
ENDBRANCH   5   7
ENDBRANCH   3   5
BRANCH   1  17
ATOM     17  C   UNL     1       3.424   1.230  -0.787  0.00  0.00    +0.101 C 
BRANCH  17  20
ATOM     18  C   UNL     1       5.831   2.800   0.021  0.00  0.00    +0.052 C 
ATOM     19  C   UNL     1       5.773   1.281   0.014  0.00  0.00    +0.065 A 
ATOM     20  C   UNL     1       4.665   0.547  -0.338  0.00  0.00    +0.011 A 
ATOM     21  C   UNL     1       4.816  -0.800  -0.279  0.00  0.00    +0.024 A 
ATOM     22  C   UNL     1       3.885  -1.941  -0.600  0.00  0.00    +0.039 C 
ATOM     23  S   UNL     1       6.455  -0.995   0.253  0.00  0.00    +0.008 S 
ATOM     24  N   UNL     1       6.854   0.617   0.369  0.00  0.00    -0.214 NA
ENDBRANCH  17  20
ENDBRANCH   1  17
TORSDOF 7
