REMARK  Name = 
REMARK  8 active torsions:
REMARK  status: ('A' for Active; 'I' for Inactive)
REMARK    1  A    between atoms: C_2  and  N_3
REMARK    2  A    between atoms: C_2  and  C_12
REMARK    3  A    between atoms: C_4  and  C_6
REMARK    4  A    between atoms: C_6  and  C_7
REMARK    5  A    between atoms: C_7  and  C_8
REMARK    6  A    between atoms: N_14  and  C_15
REMARK    7  A    between atoms: C_15  and  C_16
REMARK    8  A    between atoms: C_17  and  C_18
REMARK                            x       y       z     vdW  Elec       q    Type
REMARK                         _______ _______ _______ _____ _____    ______ ____
ROOT
ATOM      1  C   UNL     1       0.817  -2.955  -1.297  0.00  0.00    +0.052 C 
ATOM      2  C   UNL     1       0.833  -1.951  -2.406  0.00  0.00    +0.076 C 
ATOM      3  N   UNL     1      -0.089  -1.135  -1.596  0.00  0.00    -0.262 NA
ATOM      4  C   UNL     1      -0.590  -2.425  -1.096  0.00  0.00    +0.076 C 
ENDROOT
BRANCH   1   6
ATOM      5  C   UNL     1       3.088  -3.107  -0.514  0.00  0.00    +0.024 C 
ATOM      6  C   UNL     1       1.653  -2.377  -0.022  0.00  0.00    +0.098 C 
BRANCH   6   7
ATOM      7  N   UNL     1       2.024  -0.979  -0.626  0.00  0.00    -0.207 NA
ATOM      8  C   UNL     1       3.256  -0.424  -0.333  0.00  0.00    +0.241 C 
ATOM      9  O   UNL     1       4.077  -1.023   0.405  0.00  0.00    -0.273 OA
BRANCH   8  10
ATOM     10  C   UNL     1       3.593   0.911  -0.917  0.00  0.00    +0.087 C 
BRANCH  10  11
ATOM     11  C   UNL     1       4.973   1.327  -0.481  0.00  0.00    +0.010 C 
BRANCH  11  12
ATOM     12  C   UNL     1       5.118   1.444   1.017  0.00  0.00    +0.000 C 
ATOM     13  C   UNL     1       5.911   0.489   1.809  0.00  0.00    +0.000 C 
ATOM     14  C   UNL     1       6.592   1.725   1.399  0.00  0.00    +0.000 C 
ATOM     15  C   UNL     1       4.193   2.459   1.700  0.00  0.00    +0.000 C 
ENDBRANCH  11  12
ENDBRANCH  10  11
ENDBRANCH   8  10
ENDBRANCH   6   7
ENDBRANCH   1   6
BRANCH   3  16
ATOM     16  C   UNL     1      -1.062  -0.420  -2.401  0.00  0.00    +0.150 C 
BRANCH  16  17
ATOM     17  C   UNL     1      -2.171   0.002  -1.520  0.00  0.00    -0.068 C 
ATOM     18  C   UNL     1      -3.084   0.325  -0.804  0.00  0.00    -0.063 C 
BRANCH  18  19
ATOM     19  C   UNL     1      -4.193   0.691   0.043  0.00  0.00    +0.042 A 
ATOM     20  C   UNL     1      -4.262   0.295   1.364  0.00  0.00    +0.011 A 
ATOM     21  C   UNL     1      -5.335   0.654   2.176  0.00  0.00    +0.030 A 
ATOM     22  C   UNL     1      -6.374   1.422   1.691  0.00  0.00    +0.140 A 
ATOM     23  F   UNL     1      -7.433   1.781   2.473  0.00  0.00    -0.204 F 
ATOM     24  C   UNL     1      -6.297   1.813   0.371  0.00  0.00    +0.030 A 
ATOM     25  C   UNL     1      -5.235   1.459  -0.437  0.00  0.00    +0.011 A 
ENDBRANCH  18  19
ENDBRANCH  16  17
ENDBRANCH   3  16
TORSDOF 8
