REMARK  Name = 
REMARK  6 active torsions:
REMARK  status: ('A' for Active; 'I' for Inactive)
REMARK    1  A    between atoms: C_2  and  C_3
REMARK    2  A    between atoms: C_3  and  N_4
REMARK    3  A    between atoms: N_4  and  C_18
REMARK    4  A    between atoms: N_7  and  C_8
REMARK    5  A    between atoms: C_8  and  C_9
REMARK    6  A    between atoms: C_9  and  N_11
REMARK                            x       y       z     vdW  Elec       q    Type
REMARK                         _______ _______ _______ _____ _____    ______ ____
ROOT
ATOM      1  N   UNL     1      -1.222   0.233  -0.224  0.00  0.00    -0.249 N 
ATOM      2  C   UNL     1       0.075  -0.258  -0.452  0.00  0.00    +0.324 C 
ATOM      3  N   UNL     1       0.510  -1.583  -0.122  0.00  0.00    -0.187 NA
ATOM      4  O   UNL     1       0.997   0.450  -0.982  0.00  0.00    -0.251 OA
ENDROOT
BRANCH   1   5
ATOM      5  C   UNL     1      -2.264  -0.700   0.437  0.00  0.00    +0.100 C 
ATOM      6  C   UNL     1      -3.552   0.264   0.371  0.00  0.00    -0.008 A 
ATOM      7  C   UNL     1      -4.231   0.472  -0.739  0.00  0.00    -0.025 A 
ATOM      8  C   UNL     1      -5.322   1.348  -0.636  0.00  0.00    -0.005 A 
ATOM      9  C   UNL     1      -5.659   1.957   0.568  0.00  0.00    -0.000 A 
ATOM     10  C   UNL     1      -4.912   1.702   1.695  0.00  0.00    -0.000 A 
ATOM     11  C   UNL     1      -4.037  -0.060  -2.106  0.00  0.00    +0.026 C 
ATOM     12  C   UNL     1      -2.751  -0.840  -2.079  0.00  0.00    +0.007 C 
ATOM     13  C   UNL     1      -3.849   0.852   1.609  0.00  0.00    -0.003 A 
ATOM     14  C   UNL     1      -2.688  -1.621  -0.859  0.00  0.00    +0.025 C 
ENDBRANCH   1   5
BRANCH   1  15
ATOM     15  C   UNL     1      -1.538   1.570  -0.597  0.00  0.00    +0.173 C 
BRANCH  15  17
ATOM     16  C   UNL     1      -1.135   3.363   1.309  0.00  0.00    -0.012 C 
ATOM     17  C   UNL     1      -1.307   2.551   0.436  0.00  0.00    -0.056 C 
ENDBRANCH  15  17
ENDBRANCH   1  15
BRANCH   3  18
ATOM     18  C   UNL     1       1.890  -2.020  -0.391  0.00  0.00    +0.133 C 
BRANCH  18  19
ATOM     19  C   UNL     1       2.778  -0.936   0.530  0.00  0.00    +0.079 C 
ATOM     20  C   UNL     1       2.030  -1.441   1.926  0.00  0.00    +0.019 C 
BRANCH  19  21
ATOM     21  N   UNL     1       3.979  -1.961   0.710  0.00  0.00    -0.272 NA
ATOM     22  C   UNL     1       4.965  -1.074   1.328  0.00  0.00    +0.072 C 
ATOM     23  C   UNL     1       4.938   0.280   0.606  0.00  0.00    +0.017 C 
ATOM     24  C   UNL     1       5.447   0.102  -0.831  0.00  0.00    +0.003 C 
ATOM     25  C   UNL     1       6.722   0.892  -1.038  0.00  0.00    +0.000 C 
ATOM     26  C   UNL     1       5.684  -1.381  -0.978  0.00  0.00    +0.017 C 
ATOM     27  C   UNL     1       4.454  -2.162  -0.668  0.00  0.00    +0.072 C 
ENDBRANCH  19  21
ENDBRANCH  18  19
ENDBRANCH   3  18
TORSDOF 6
