REMARK  Name = 
REMARK  5 active torsions:
REMARK  status: ('A' for Active; 'I' for Inactive)
REMARK    1  A    between atoms: N_5  and  C_6
REMARK    2  A    between atoms: C_6  and  C_8
REMARK    3  A    between atoms: C_8  and  N_9
REMARK    4  A    between atoms: N_12  and  C_13
REMARK    5  A    between atoms: C_13  and  C_14
REMARK                            x       y       z     vdW  Elec       q    Type
REMARK                         _______ _______ _______ _____ _____    ______ ____
ROOT
ATOM      1  N   UNL     1       1.214  -0.578   0.841  0.00  0.00    -0.186 NA
ATOM      2  C   UNL     1       0.135  -0.362  -0.082  0.00  0.00    +0.339 C 
ATOM      3  N   UNL     1      -0.699   0.733  -0.077  0.00  0.00    -0.185 NA
ATOM      4  O   UNL     1      -0.007  -1.261  -0.919  0.00  0.00    -0.249 OA
ENDROOT
BRANCH   1   5
ATOM      5  C   UNL     1       2.003  -1.749   0.734  0.00  0.00    +0.133 C 
BRANCH   5   6
ATOM      6  C   UNL     1       2.689  -1.722  -0.759  0.00  0.00    +0.079 C 
ATOM      7  C   UNL     1       3.972  -2.644  -0.294  0.00  0.00    +0.019 C 
BRANCH   6  12
ATOM      8  C   UNL     1       7.224   0.829   0.728  0.00  0.00    +0.000 C 
ATOM      9  C   UNL     1       6.321  -0.186   0.101  0.00  0.00    +0.003 C 
ATOM     10  C   UNL     1       5.308  -0.703   1.061  0.00  0.00    +0.017 C 
ATOM     11  C   UNL     1       3.912  -0.308   0.803  0.00  0.00    +0.072 C 
ATOM     12  N   UNL     1       3.457  -0.366  -0.532  0.00  0.00    -0.272 NA
ATOM     13  C   UNL     1       4.527  -0.498  -1.510  0.00  0.00    +0.072 C 
ATOM     14  C   UNL     1       5.720   0.347  -1.181  0.00  0.00    +0.017 C 
ENDBRANCH   6  12
ENDBRANCH   5   6
ENDBRANCH   1   5
BRANCH   3  15
ATOM     15  C   UNL     1      -1.776   1.012  -0.909  0.00  0.00    +0.147 C 
BRANCH  15  16
ATOM     16  C   UNL     1      -2.870   0.018  -0.742  0.00  0.00    +0.147 C 
ATOM     17  C   UNL     1      -4.071   0.318  -1.619  0.00  0.00    +0.032 C 
ATOM     18  C   UNL     1      -4.739   1.606  -1.242  0.00  0.00    +0.003 C 
ATOM     19  C   UNL     1      -5.576   1.346  -0.009  0.00  0.00    +0.000 C 
ATOM     20  C   UNL     1      -6.892   2.074  -0.186  0.00  0.00    +0.000 C 
ATOM     21  C   UNL     1      -5.896  -0.114   0.172  0.00  0.00    +0.000 C 
ATOM     22  C   UNL     1      -4.847   1.931   1.176  0.00  0.00    +0.000 C 
ATOM     23  C   UNL     1      -3.404   1.484   1.214  0.00  0.00    +0.003 C 
ATOM     24  C   UNL     1      -3.261   0.045   0.732  0.00  0.00    +0.032 C 
ATOM     25  O   UNL     1      -2.445  -1.252  -1.069  0.00  0.00    -0.224 OA
ENDBRANCH  15  16
ENDBRANCH   3  15
TORSDOF 5
