REMARK  Name = 
REMARK  6 active torsions:
REMARK  status: ('A' for Active; 'I' for Inactive)
REMARK    1  A    between atoms: C_5  and  C_6
REMARK    2  A    between atoms: C_6  and  N_7
REMARK    3  A    between atoms: N_10  and  C_11
REMARK    4  A    between atoms: C_11  and  C_12
REMARK    5  A    between atoms: N_16  and  C_17
REMARK    6  A    between atoms: C_17  and  C_18
REMARK                            x       y       z     vdW  Elec       q    Type
REMARK                         _______ _______ _______ _____ _____    ______ ____
ROOT
ATOM      1  N   UNL     1      -2.110   1.085   1.165  0.00  0.00    -0.186 NA
ATOM      2  C   UNL     1      -1.339   1.116  -0.054  0.00  0.00    +0.339 C 
ATOM      3  N   UNL     1      -0.463   2.157  -0.375  0.00  0.00    -0.187 NA
ATOM      4  O   UNL     1      -1.447   0.176  -0.873  0.00  0.00    -0.249 OA
ENDROOT
BRANCH   1   5
ATOM      5  C   UNL     1      -2.998  -0.014   1.449  0.00  0.00    +0.099 C 
ATOM      6  C   UNL     1      -3.393  -0.174   2.891  0.00  0.00    +0.024 C 
ATOM      7  C   UNL     1      -3.099  -1.671   2.718  0.00  0.00    +0.004 C 
ATOM      8  C   UNL     1      -2.236  -1.346   1.510  0.00  0.00    +0.024 C 
BRANCH   5  13
ATOM      9  C   UNL     1      -7.350  -0.535  -2.280  0.00  0.00    +0.031 C 
ATOM     10  C   UNL     1      -6.241  -0.417  -1.309  0.00  0.00    -0.022 A 
ATOM     11  C   UNL     1      -5.199   0.448  -1.532  0.00  0.00    -0.005 A 
ATOM     12  C   UNL     1      -4.166   0.570  -0.642  0.00  0.00    -0.003 A 
ATOM     13  C   UNL     1      -4.130  -0.169   0.510  0.00  0.00    -0.004 A 
ATOM     14  C   UNL     1      -5.173  -1.041   0.743  0.00  0.00    -0.003 A 
ATOM     15  C   UNL     1      -6.209  -1.166  -0.143  0.00  0.00    -0.005 A 
ENDBRANCH   5  13
ENDBRANCH   1   5
BRANCH   3  16
ATOM     16  C   UNL     1       0.374   2.489  -1.360  0.00  0.00    +0.118 C 
BRANCH  16  17
ATOM     17  C   UNL     1       1.630   1.564  -1.700  0.00  0.00    +0.038 C 
ATOM     18  C   UNL     1       1.939   1.140  -0.146  0.00  0.00    +0.074 C 
ATOM     19  N   UNL     1       3.109   0.375  -0.232  0.00  0.00    -0.269 NA
ATOM     20  C   UNL     1       3.023  -0.575  -1.288  0.00  0.00    +0.072 C 
ATOM     21  C   UNL     1       1.552  -0.939  -1.344  0.00  0.00    +0.017 C 
ATOM     22  C   UNL     1       0.888   0.175  -2.094  0.00  0.00    +0.005 C 
BRANCH  19  23
ATOM     23  C   UNL     1       3.829   0.034   0.902  0.00  0.00    +0.099 C 
BRANCH  23  24
ATOM     24  C   UNL     1       5.225  -0.271   0.522  0.00  0.00    -0.006 A 
ATOM     25  C   UNL     1       5.517  -0.974  -0.614  0.00  0.00    -0.003 A 
ATOM     26  C   UNL     1       6.837  -1.267  -0.988  0.00  0.00    -0.000 A 
ATOM     27  C   UNL     1       7.852  -0.821  -0.169  0.00  0.00    -0.000 A 
ATOM     28  C   UNL     1       7.540  -0.116   0.970  0.00  0.00    -0.000 A 
ATOM     29  C   UNL     1       6.238   0.166   1.326  0.00  0.00    -0.003 A 
ENDBRANCH  23  24
ENDBRANCH  19  23
ENDBRANCH  16  17
ENDBRANCH   3  16
TORSDOF 6
