REMARK  Name = 
REMARK  6 active torsions:
REMARK  status: ('A' for Active; 'I' for Inactive)
REMARK    1  A    between atoms: C_2  and  O_5
REMARK    2  A    between atoms: O_5  and  C_6
REMARK    3  A    between atoms: N_19  and  C_20
REMARK    4  A    between atoms: C_20  and  C_21
REMARK    5  A    between atoms: N_25  and  C_26
REMARK    6  A    between atoms: C_26  and  C_27
REMARK                            x       y       z     vdW  Elec       q    Type
REMARK                         _______ _______ _______ _____ _____    ______ ____
ROOT
ATOM      1  C   UNL     1       3.790  -0.357  -0.418  0.00  0.00    +0.405 C 
ATOM      2  N   UNL     1       3.578  -1.656  -0.677  0.00  0.00    -0.246 N 
ATOM      3  C   UNL     1       2.986  -2.262  -1.932  0.00  0.00    +0.097 C 
ATOM      4  C   UNL     1       4.200  -3.286  -1.930  0.00  0.00    +0.023 C 
ATOM      5  C   UNL     1       4.092  -3.307  -0.707  0.00  0.00    +0.023 C 
ATOM      6  C   UNL     1       2.816  -2.743   0.336  0.00  0.00    +0.095 C 
ATOM      7  N   UNL     1       1.758  -2.650   0.127  0.00  0.00    -0.263 N 
ATOM      8  C   UNL     1       0.722  -2.091   0.761  0.00  0.00    +0.323 C 
ATOM      9  N   UNL     1      -0.622  -2.108   0.250  0.00  0.00    -0.188 NA
ATOM     10  O   UNL     1       0.753  -1.485   1.863  0.00  0.00    -0.251 OA
ATOM     11  C   UNL     1       1.921  -3.382  -1.138  0.00  0.00    +0.097 C 
ATOM     12  C   UNL     1       3.172  -4.184  -0.379  0.00  0.00    +0.043 C 
ATOM     13  C   UNL     1       3.927  -2.808   0.274  0.00  0.00    +0.098 C 
ATOM     14  O   UNL     1       3.463   0.545  -1.274  0.00  0.00    -0.226 OA
ENDROOT
BRANCH   1  15
ATOM     15  O   UNL     1       4.348   0.199   0.718  0.00  0.00    -0.442 OA
BRANCH  15  17
ATOM     16  C   UNL     1       5.421   2.161  -0.233  0.00  0.00    +0.044 C 
ATOM     17  C   UNL     1       4.518   1.594   0.870  0.00  0.00    +0.138 C 
ATOM     18  C   UNL     1       3.220   2.346   0.838  0.00  0.00    +0.044 C 
ATOM     19  C   UNL     1       5.239   1.766   2.199  0.00  0.00    +0.044 C 
ENDBRANCH  15  17
ENDBRANCH   1  15
BRANCH   9  20
ATOM     20  C   UNL     1      -1.757  -1.563   0.826  0.00  0.00    +0.118 C 
BRANCH  20  21
ATOM     21  C   UNL     1      -1.632   0.023   1.040  0.00  0.00    +0.038 C 
ATOM     22  C   UNL     1      -3.242   0.274   0.950  0.00  0.00    +0.074 C 
ATOM     23  N   UNL     1      -3.302   1.700   0.969  0.00  0.00    -0.269 NA
ATOM     24  C   UNL     1      -2.864   2.332  -0.248  0.00  0.00    +0.072 C 
ATOM     25  C   UNL     1      -1.417   1.932  -0.448  0.00  0.00    +0.017 C 
ATOM     26  C   UNL     1      -1.419   0.398  -0.537  0.00  0.00    +0.005 C 
BRANCH  23  27
ATOM     27  C   UNL     1      -4.566   2.223   1.439  0.00  0.00    +0.099 C 
BRANCH  27  28
ATOM     28  C   UNL     1      -5.559   1.984   0.402  0.00  0.00    -0.006 A 
ATOM     29  C   UNL     1      -5.806   2.892  -0.587  0.00  0.00    -0.003 A 
ATOM     30  C   UNL     1      -6.747   2.670  -1.573  0.00  0.00    -0.000 A 
ATOM     31  C   UNL     1      -7.457   1.509  -1.564  0.00  0.00    -0.000 A 
ATOM     32  C   UNL     1      -7.245   0.576  -0.596  0.00  0.00    -0.000 A 
ATOM     33  C   UNL     1      -6.291   0.832   0.378  0.00  0.00    -0.003 A 
ENDBRANCH  27  28
ENDBRANCH  23  27
ENDBRANCH  20  21
ENDBRANCH   9  20
TORSDOF 6
