REMARK  Name = 
REMARK  9 active torsions:
REMARK  status: ('A' for Active; 'I' for Inactive)
REMARK    1  A    between atoms: C_2  and  N_3
REMARK    2  A    between atoms: C_2  and  C_14
REMARK    3  A    between atoms: C_4  and  C_6
REMARK    4  A    between atoms: C_10  and  C_11
REMARK    5  A    between atoms: N_16  and  C_17
REMARK    6  A    between atoms: C_17  and  C_18
REMARK    7  A    between atoms: C_18  and  C_19
REMARK    8  A    between atoms: C_19  and  C_20
REMARK    9  A    between atoms: C_20  and  C_21
REMARK                            x       y       z     vdW  Elec       q    Type
REMARK                         _______ _______ _______ _____ _____    ______ ____
ROOT
ATOM      1  C   UNL     1      -0.002   1.742   0.819  0.00  0.00    +0.024 C 
ATOM      2  C   UNL     1      -0.265   2.017  -0.789  0.00  0.00    +0.098 C 
ENDROOT
BRANCH   2   3
ATOM      3  C   UNL     1       1.132   1.364  -1.341  0.00  0.00    +0.052 C 
ATOM      4  C   UNL     1       1.635   0.293  -0.456  0.00  0.00    +0.075 C 
ATOM      5  N   UNL     1       2.878   0.972  -0.210  0.00  0.00    -0.272 NA
ATOM      6  C   UNL     1       2.218   2.191  -0.644  0.00  0.00    +0.075 C 
BRANCH   5   7
ATOM      7  C   UNL     1       3.254   0.875   1.167  0.00  0.00    +0.072 C 
BRANCH   7   8
ATOM      8  C   UNL     1       3.805  -0.514   1.402  0.00  0.00    +0.017 C 
BRANCH   8   9
ATOM      9  C   UNL     1       4.983  -0.672   0.475  0.00  0.00    +0.004 C 
BRANCH   9  10
ATOM     10  C   UNL     1       6.025   0.344   0.763  0.00  0.00    +0.038 C 
BRANCH  10  11
ATOM     11  C   UNL     1       7.202   0.150  -0.193  0.00  0.00    +0.193 C 
ATOM     12  F   UNL     1       7.708  -1.132   0.002  0.00  0.00    -0.234 F 
ENDBRANCH  10  11
ENDBRANCH   9  10
ENDBRANCH   8   9
ENDBRANCH   7   8
ENDBRANCH   5   7
ENDBRANCH   2   3
BRANCH   2  13
ATOM     13  N   UNL     1      -1.061   0.649  -0.996  0.00  0.00    -0.202 NA
ATOM     14  C   UNL     1      -2.235   0.465  -0.297  0.00  0.00    +0.285 C 
ATOM     15  O   UNL     1      -2.630   1.370   0.456  0.00  0.00    -0.267 OA
BRANCH  14  16
ATOM     16  C   UNL     1      -3.081  -0.736  -0.364  0.00  0.00    +0.169 A 
ATOM     17  C   UNL     1      -4.242  -1.039   0.246  0.00  0.00    +0.146 A 
ATOM     18  O   UNL     1      -4.563  -2.245  -0.166  0.00  0.00    -0.435 OA
ATOM     19  C   UNL     1      -3.676  -2.713  -0.995  0.00  0.00    +0.285 A 
ATOM     20  N   UNL     1      -2.702  -1.783  -1.157  0.00  0.00    -0.200 NA
BRANCH  17  21
ATOM     21  C   UNL     1      -4.946  -0.131   1.181  0.00  0.00    +0.059 C 
ATOM     22  C   UNL     1      -5.135  -0.728   2.595  0.00  0.00    +0.008 C 
ATOM     23  C   UNL     1      -6.301  -0.739   1.648  0.00  0.00    +0.008 C 
ENDBRANCH  17  21
ENDBRANCH  14  16
ENDBRANCH   2  13
TORSDOF 9
