REMARK  Name = 
REMARK  9 active torsions:
REMARK  status: ('A' for Active; 'I' for Inactive)
REMARK    1  A    between atoms: C_2  and  C_3
REMARK    2  A    between atoms: C_3  and  C_4
REMARK    3  A    between atoms: C_4  and  C_5
REMARK    4  A    between atoms: C_5  and  C_6
REMARK    5  A    between atoms: C_6  and  N_7
REMARK    6  A    between atoms: C_6  and  C_21
REMARK    7  A    between atoms: N_10  and  C_11
REMARK    8  A    between atoms: C_11  and  C_12
REMARK    9  A    between atoms: C_12  and  N_14
REMARK                            x       y       z     vdW  Elec       q    Type
REMARK                         _______ _______ _______ _____ _____    ______ ____
ROOT
ATOM      1  N   UNL     1      -0.967  -0.305   0.537  0.00  0.00    -0.184 NA
ATOM      2  C   UNL     1      -0.127   0.059  -0.521  0.00  0.00    +0.340 C 
ATOM      3  N   UNL     1       1.214  -0.339  -0.670  0.00  0.00    -0.186 NA
ATOM      4  O   UNL     1      -0.597   0.796  -1.411  0.00  0.00    -0.249 OA
ENDROOT
BRANCH   1   5
ATOM      5  C   UNL     1      -2.396   0.199   0.603  0.00  0.00    +0.119 C 
BRANCH   5   6
ATOM      6  C   UNL     1      -3.118  -1.212   0.524  0.00  0.00    -0.003 A 
ATOM      7  C   UNL     1      -2.615  -2.193   1.332  0.00  0.00    -0.003 A 
ATOM      8  C   UNL     1      -3.175  -3.480   1.349  0.00  0.00    -0.000 A 
ATOM      9  C   UNL     1      -4.243  -3.673   0.509  0.00  0.00    -0.000 A 
ATOM     10  C   UNL     1      -4.747  -2.696  -0.296  0.00  0.00    -0.000 A 
ATOM     11  C   UNL     1      -4.155  -1.461  -0.267  0.00  0.00    -0.003 A 
ENDBRANCH   5   6
BRANCH   5  12
ATOM     12  C   UNL     1      -2.600   0.606  -0.952  0.00  0.00    +0.027 C 
BRANCH  12  13
ATOM     13  C   UNL     1      -4.035   1.145  -1.022  0.00  0.00    +0.007 C 
BRANCH  13  14
ATOM     14  C   UNL     1      -4.219   2.333  -0.125  0.00  0.00    +0.026 C 
BRANCH  14  16
ATOM     15  C   UNL     1      -3.650   4.601  -0.966  0.00  0.00    -0.005 C 
ATOM     16  C   UNL     1      -3.277   3.396  -0.559  0.00  0.00    -0.026 C 
ENDBRANCH  14  16
ENDBRANCH  13  14
ENDBRANCH  12  13
ENDBRANCH   5  12
ENDBRANCH   1   5
BRANCH   3  17
ATOM     17  C   UNL     1       1.994   0.062  -1.766  0.00  0.00    +0.133 C 
BRANCH  17  18
ATOM     18  C   UNL     1       3.494  -0.605  -1.563  0.00  0.00    +0.079 C 
ATOM     19  C   UNL     1       2.917  -2.162  -1.557  0.00  0.00    +0.019 C 
BRANCH  18  20
ATOM     20  N   UNL     1       3.516  -0.528   0.020  0.00  0.00    -0.272 NA
ATOM     21  C   UNL     1       4.894  -0.992   0.245  0.00  0.00    +0.072 C 
ATOM     22  C   UNL     1       5.764   0.095   0.818  0.00  0.00    +0.017 C 
ATOM     23  C   UNL     1       5.804   1.329  -0.063  0.00  0.00    +0.003 C 
ATOM     24  C   UNL     1       6.512   2.458   0.665  0.00  0.00    +0.000 C 
ATOM     25  C   UNL     1       4.369   1.762  -0.253  0.00  0.00    +0.017 C 
ATOM     26  C   UNL     1       3.445   0.804   0.429  0.00  0.00    +0.072 C 
ENDBRANCH  18  20
ENDBRANCH  17  18
ENDBRANCH   3  17
TORSDOF 9
