REMARK  Name = 
REMARK  9 active torsions:
REMARK  status: ('A' for Active; 'I' for Inactive)
REMARK    1  A    between atoms: C_2  and  C_3
REMARK    2  A    between atoms: C_3  and  O_4
REMARK    3  A    between atoms: O_4  and  C_5
REMARK    4  A    between atoms: C_5  and  C_6
REMARK    5  A    between atoms: C_6  and  N_7
REMARK    6  A    between atoms: C_9  and  C_10
REMARK    7  A    between atoms: C_10  and  N_12
REMARK    8  A    between atoms: C_13  and  C_15
REMARK    9  A    between atoms: C_15  and  N_16
REMARK                            x       y       z     vdW  Elec       q    Type
REMARK                         _______ _______ _______ _____ _____    ______ ____
ROOT
ATOM      1  C   UNL     1       0.641  -0.462  -1.566  0.00  0.00    +0.098 C 
ATOM      2  C   UNL     1       0.264   0.091  -3.051  0.00  0.00    +0.024 C 
ENDROOT
BRANCH   1   5
ATOM      3  N   UNL     1       2.941   0.132  -1.308  0.00  0.00    -0.270 NA
ATOM      4  C   UNL     1       2.339   0.571  -0.113  0.00  0.00    +0.075 C 
ATOM      5  C   UNL     1       1.185   0.971  -1.017  0.00  0.00    +0.052 C 
ATOM      6  C   UNL     1       2.335   1.250  -1.976  0.00  0.00    +0.075 C 
BRANCH   3   7
ATOM      7  C   UNL     1       4.249  -0.224  -1.484  0.00  0.00    +0.105 C 
BRANCH   7   8
ATOM      8  C   UNL     1       5.285   0.710  -0.975  0.00  0.00    +0.160 C 
BRANCH   8   9
ATOM      9  O   UNL     1       5.103   0.868   0.393  0.00  0.00    -0.348 OA
BRANCH   9  10
ATOM     10  C   UNL     1       5.258  -0.389   0.974  0.00  0.00    +0.168 C 
BRANCH  10  12
ATOM     11  C   UNL     1       6.048  -0.518   3.241  0.00  0.00    -0.002 C 
ATOM     12  C   UNL     1       5.051  -0.200   2.439  0.00  0.00    +0.006 C 
ENDBRANCH  10  12
ENDBRANCH   9  10
ENDBRANCH   8   9
ENDBRANCH   7   8
ENDBRANCH   3   7
ENDBRANCH   1   5
BRANCH   1  13
ATOM     13  N   UNL     1      -0.818  -0.236  -1.002  0.00  0.00    -0.206 NA
ATOM     14  C   UNL     1      -1.212  -1.394  -0.246  0.00  0.00    +0.262 C 
ATOM     15  O   UNL     1      -0.454  -2.387  -0.113  0.00  0.00    -0.271 OA
BRANCH  14  16
ATOM     16  C   UNL     1      -2.532  -1.397   0.378  0.00  0.00    +0.182 C 
BRANCH  16  17
ATOM     17  N   UNL     1      -3.348  -0.249   0.194  0.00  0.00    -0.253 N 
ATOM     18  C   UNL     1      -3.280   0.830   1.135  0.00  0.00    +0.330 C 
ATOM     19  O   UNL     1      -2.185   1.213   1.613  0.00  0.00    -0.250 OA
ATOM     20  N   UNL     1      -4.498   1.458   1.514  0.00  0.00    -0.127 NA
ATOM     21  C   UNL     1      -5.664   0.912   0.886  0.00  0.00    +0.251 C 
ATOM     22  O   UNL     1      -6.793   0.887   1.474  0.00  0.00    -0.273 OA
ATOM     23  C   UNL     1      -5.643   0.344  -0.475  0.00  0.00    +0.109 C 
ATOM     24  C   UNL     1      -4.271  -0.114  -0.914  0.00  0.00    +0.105 C 
ENDBRANCH  16  17
ENDBRANCH  14  16
ENDBRANCH   1  13
TORSDOF 9
