REMARK  Name = 
REMARK  7 active torsions:
REMARK  status: ('A' for Active; 'I' for Inactive)
REMARK    1  A    between atoms: C_6  and  C_7
REMARK    2  A    between atoms: C_7  and  C_8
REMARK    3  A    between atoms: C_8  and  C_9
REMARK    4  A    between atoms: N_11  and  C_12
REMARK    5  A    between atoms: C_12  and  C_14
REMARK    6  A    between atoms: N_16  and  C_17
REMARK    7  A    between atoms: C_17  and  C_18
REMARK                            x       y       z     vdW  Elec       q    Type
REMARK                         _______ _______ _______ _____ _____    ______ ____
ROOT
ATOM      1  C   UNL     1      -1.128   0.042   0.979  0.00  0.00    +0.242 C 
ATOM      2  N   UNL     1       0.197  -0.486   0.985  0.00  0.00    -0.207 NA
ATOM      3  O   UNL     1      -1.402   1.107   0.378  0.00  0.00    -0.273 OA
ENDROOT
BRANCH   2   4
ATOM      4  C   UNL     1       1.168   0.419   0.171  0.00  0.00    +0.098 C 
ATOM      5  C   UNL     1       0.951   1.724   1.131  0.00  0.00    +0.024 C 
BRANCH   4   6
ATOM      6  C   UNL     1       2.498  -0.085   1.021  0.00  0.00    +0.052 C 
ATOM      7  C   UNL     1       3.091  -1.264   0.325  0.00  0.00    +0.076 C 
ATOM      8  N   UNL     1       4.064  -0.457  -0.328  0.00  0.00    -0.260 NA
ATOM      9  C   UNL     1       3.598   0.719   0.348  0.00  0.00    +0.076 C 
BRANCH   8  10
ATOM     10  C   UNL     1       5.452  -0.734  -0.029  0.00  0.00    +0.179 C 
BRANCH  10  11
ATOM     11  C   UNL     1       6.308   0.311  -0.626  0.00  0.00    +0.091 C 
ATOM     12  N   UNL     1       6.981   1.134  -1.109  0.00  0.00    -0.194 NA
ENDBRANCH  10  11
ENDBRANCH   8  10
ENDBRANCH   4   6
ENDBRANCH   2   4
BRANCH   1  13
ATOM     13  C   UNL     1      -2.187  -0.722   1.717  0.00  0.00    +0.092 C 
BRANCH  13  14
ATOM     14  C   UNL     1      -3.507  -0.027   1.648  0.00  0.00    +0.044 C 
BRANCH  14  17
ATOM     15  C   UNL     1      -4.592  -2.345  -0.107  0.00  0.00    +0.052 C 
ATOM     16  C   UNL     1      -4.405  -0.915  -0.597  0.00  0.00    +0.062 A 
ATOM     17  C   UNL     1      -3.914   0.085   0.214  0.00  0.00    +0.023 A 
ATOM     18  S   UNL     1      -3.925   1.424  -0.844  0.00  0.00    -0.069 S 
ATOM     19  C   UNL     1      -4.541   0.654  -2.232  0.00  0.00    +0.134 A 
ATOM     20  N   UNL     1      -4.708  -0.587  -1.819  0.00  0.00    -0.241 NA
ENDBRANCH  14  17
ENDBRANCH  13  14
ENDBRANCH   1  13
TORSDOF 7
