REMARK  Name = 
REMARK  7 active torsions:
REMARK  status: ('A' for Active; 'I' for Inactive)
REMARK    1  A    between atoms: N_3  and  C_4
REMARK    2  A    between atoms: C_4  and  C_5
REMARK    3  A    between atoms: N_9  and  C_10
REMARK    4  A    between atoms: C_10  and  C_11
REMARK    5  A    between atoms: N_18  and  C_19
REMARK    6  A    between atoms: C_19  and  C_20
REMARK    7  A    between atoms: C_20  and  C_21
REMARK                            x       y       z     vdW  Elec       q    Type
REMARK                         _______ _______ _______ _____ _____    ______ ____
ROOT
ATOM      1  O   UNL     1       0.508   0.187   0.738  0.00  0.00    -0.249 OA
ATOM      2  C   UNL     1       0.899   1.358   0.990  0.00  0.00    +0.339 C 
ATOM      3  N   UNL     1       2.260   1.550   1.169  0.00  0.00    -0.186 NA
ATOM      4  N   UNL     1      -0.075   2.352   1.065  0.00  0.00    -0.187 NA
ENDROOT
BRANCH   3   5
ATOM      5  C   UNL     1       3.376   0.888   1.119  0.00  0.00    +0.136 C 
BRANCH   5   6
ATOM      6  C   UNL     1       4.026   0.346  -0.083  0.00  0.00    +0.124 C 
ATOM      7  N   UNL     1       5.225  -0.236   0.492  0.00  0.00    -0.268 NA
ATOM      8  C   UNL     1       5.895  -1.204  -0.537  0.00  0.00    +0.087 C 
ATOM      9  C   UNL     1       4.693  -2.334  -0.444  0.00  0.00    +0.020 C 
ATOM     10  C   UNL     1       4.403  -2.318   1.014  0.00  0.00    +0.019 C 
ATOM     11  C   UNL     1       5.276  -0.482  -1.891  0.00  0.00    +0.158 C 
ATOM     12  O   UNL     1       5.589   0.866  -1.713  0.00  0.00    -0.351 OA
ATOM     13  C   UNL     1       4.985  -1.085   1.607  0.00  0.00    +0.072 C 
ATOM     14  C   UNL     1       4.522   1.438  -1.033  0.00  0.00    +0.161 C 
BRANCH   6  15
ATOM     15  C   UNL     1       3.199  -0.587  -0.836  0.00  0.00    +0.201 C 
ATOM     16  O   UNL     1       2.134  -0.059  -1.502  0.00  0.00    -0.219 OA
ENDBRANCH   6  15
ENDBRANCH   5   6
ENDBRANCH   3   5
BRANCH   4  17
ATOM     17  C   UNL     1      -1.459   2.354   0.930  0.00  0.00    +0.118 C 
BRANCH  17  18
ATOM     18  C   UNL     1      -2.093   1.410   2.086  0.00  0.00    +0.038 C 
ATOM     19  C   UNL     1      -2.029   0.026   1.213  0.00  0.00    +0.074 C 
ATOM     20  N   UNL     1      -2.676   0.143   0.027  0.00  0.00    -0.269 NA
ATOM     21  C   UNL     1      -2.984   1.354  -0.584  0.00  0.00    +0.072 C 
ATOM     22  C   UNL     1      -3.866   2.159   0.381  0.00  0.00    +0.017 C 
ATOM     23  C   UNL     1      -3.703   1.655   1.718  0.00  0.00    +0.005 C 
BRANCH  20  24
ATOM     24  C   UNL     1      -3.069  -1.053  -0.602  0.00  0.00    +0.099 C 
BRANCH  24  25
ATOM     25  C   UNL     1      -4.507  -1.236  -0.832  0.00  0.00    -0.006 A 
ATOM     26  C   UNL     1      -5.424  -0.291  -0.468  0.00  0.00    -0.003 A 
ATOM     27  C   UNL     1      -6.747  -0.505  -0.701  0.00  0.00    -0.000 A 
ATOM     28  C   UNL     1      -7.152  -1.664  -1.298  0.00  0.00    -0.000 A 
ATOM     29  C   UNL     1      -6.275  -2.629  -1.675  0.00  0.00    -0.000 A 
ATOM     30  C   UNL     1      -4.929  -2.401  -1.433  0.00  0.00    -0.003 A 
ENDBRANCH  24  25
ENDBRANCH  20  24
ENDBRANCH  17  18
ENDBRANCH   4  17
TORSDOF 7
