REMARK  Name = 
REMARK  6 active torsions:
REMARK  status: ('A' for Active; 'I' for Inactive)
REMARK    1  A    between atoms: N_3  and  C_4
REMARK    2  A    between atoms: C_4  and  C_5
REMARK    3  A    between atoms: C_10  and  C_11
REMARK    4  A    between atoms: N_15  and  C_16
REMARK    5  A    between atoms: C_16  and  C_17
REMARK    6  A    between atoms: C_17  and  C_20
REMARK                            x       y       z     vdW  Elec       q    Type
REMARK                         _______ _______ _______ _____ _____    ______ ____
ROOT
ATOM      1  O   UNL     1      -0.660  -0.825   1.741  0.00  0.00    -0.249 OA
ATOM      2  C   UNL     1      -0.600  -0.055   0.805  0.00  0.00    +0.340 C 
ATOM      3  N   UNL     1       0.398  -0.324  -0.237  0.00  0.00    -0.181 NA
ATOM      4  N   UNL     1      -1.417   1.054   0.580  0.00  0.00    -0.182 NA
ENDROOT
BRANCH   3   5
ATOM      5  C   UNL     1       1.297  -1.196  -0.462  0.00  0.00    +0.188 C 
BRANCH   5   6
ATOM      6  C   UNL     1       2.565  -1.642  -0.024  0.00  0.00    +0.304 C 
ATOM      7  F   UNL     1       2.970  -2.842  -0.571  0.00  0.00    -0.198 F 
ATOM      8  F   UNL     1       2.509  -1.972   1.397  0.00  0.00    -0.198 F 
BRANCH   6   9
ATOM      9  C   UNL     1       3.631  -0.578  -0.109  0.00  0.00    +0.067 A 
ATOM     10  C   UNL     1       4.932  -0.964   0.198  0.00  0.00    +0.143 A 
ATOM     11  F   UNL     1       5.206  -2.293   0.351  0.00  0.00    -0.204 F 
ATOM     12  C   UNL     1       5.955  -0.039   0.280  0.00  0.00    +0.059 A 
ATOM     13  C   UNL     1       5.669   1.278   0.046  0.00  0.00    +0.142 A 
ATOM     14  F   UNL     1       6.659   2.224   0.124  0.00  0.00    -0.204 F 
ATOM     15  C   UNL     1       4.363   1.657  -0.264  0.00  0.00    +0.030 A 
ATOM     16  C   UNL     1       3.321   0.720  -0.342  0.00  0.00    +0.006 A 
ENDBRANCH   6   9
ENDBRANCH   5   6
ENDBRANCH   3   5
BRANCH   4  17
ATOM     17  C   UNL     1      -2.717   1.392   1.174  0.00  0.00    +0.143 C 
BRANCH  17  18
ATOM     18  C   UNL     1      -3.446   0.169   0.530  0.00  0.00    +0.003 A 
ATOM     19  C   UNL     1      -4.540   0.510  -0.250  0.00  0.00    +0.069 A 
ATOM     20  C   UNL     1      -5.274  -0.466  -0.866  0.00  0.00    +0.004 A 
ATOM     21  C   UNL     1      -4.893  -1.781  -0.698  0.00  0.00    -0.000 A 
ATOM     22  C   UNL     1      -3.782  -2.132   0.085  0.00  0.00    -0.000 A 
ATOM     23  C   UNL     1      -3.058  -1.101   0.707  0.00  0.00    -0.003 A 
BRANCH  19  24
ATOM     24  C   UNL     1      -4.769   1.966  -0.382  0.00  0.00    +0.418 C 
ATOM     25  F   UNL     1      -5.499   2.221  -1.565  0.00  0.00    -0.166 F 
ATOM     26  F   UNL     1      -5.321   2.487   0.715  0.00  0.00    -0.166 F 
ATOM     27  F   UNL     1      -3.498   2.532  -0.653  0.00  0.00    -0.166 F 
ENDBRANCH  19  24
ENDBRANCH  17  18
ENDBRANCH   4  17
TORSDOF 6
