REMARK  Name = 
REMARK  9 active torsions:
REMARK  status: ('A' for Active; 'I' for Inactive)
REMARK    1  A    between atoms: C_2  and  C_3
REMARK    2  A    between atoms: C_3  and  C_4
REMARK    3  A    between atoms: C_4  and  C_5
REMARK    4  A    between atoms: C_5  and  C_6
REMARK    5  A    between atoms: C_6  and  N_7
REMARK    6  A    between atoms: C_6  and  C_21
REMARK    7  A    between atoms: N_10  and  C_11
REMARK    8  A    between atoms: C_11  and  C_12
REMARK    9  A    between atoms: C_12  and  N_14
REMARK                            x       y       z     vdW  Elec       q    Type
REMARK                         _______ _______ _______ _____ _____    ______ ____
ROOT
ATOM      1  N   UNL     1       0.909   0.294  -0.361  0.00  0.00    -0.184 NA
ATOM      2  C   UNL     1      -0.075  -0.526   0.084  0.00  0.00    +0.340 C 
ATOM      3  N   UNL     1      -1.267  -0.717  -0.703  0.00  0.00    -0.186 NA
ATOM      4  O   UNL     1       0.064  -1.110   1.177  0.00  0.00    -0.249 OA
ENDROOT
BRANCH   1   5
ATOM      5  C   UNL     1       2.231   0.573   0.406  0.00  0.00    +0.119 C 
BRANCH   5   6
ATOM      6  C   UNL     1       3.164  -0.273  -0.490  0.00  0.00    -0.003 A 
ATOM      7  C   UNL     1       3.042  -0.077  -1.833  0.00  0.00    -0.003 A 
ATOM      8  C   UNL     1       3.862  -0.790  -2.734  0.00  0.00    -0.000 A 
ATOM      9  C   UNL     1       4.779  -1.681  -2.244  0.00  0.00    -0.000 A 
ATOM     10  C   UNL     1       4.906  -1.883  -0.893  0.00  0.00    -0.000 A 
ATOM     11  C   UNL     1       4.080  -1.160  -0.055  0.00  0.00    -0.003 A 
ENDBRANCH   5   6
BRANCH   5  12
ATOM     12  C   UNL     1       2.061  -0.511   1.627  0.00  0.00    +0.027 C 
BRANCH  12  13
ATOM     13  C   UNL     1       3.305  -0.336   2.461  0.00  0.00    +0.007 C 
BRANCH  13  14
ATOM     14  C   UNL     1       3.515   1.005   3.035  0.00  0.00    +0.026 C 
BRANCH  14  16
ATOM     15  C   UNL     1       4.687   2.925   1.978  0.00  0.00    -0.005 C 
ATOM     16  C   UNL     1       3.632   2.121   2.092  0.00  0.00    -0.026 C 
ENDBRANCH  14  16
ENDBRANCH  13  14
ENDBRANCH  12  13
ENDBRANCH   5  12
ENDBRANCH   1   5
BRANCH   3  17
ATOM     17  C   UNL     1      -2.295  -1.603  -0.199  0.00  0.00    +0.133 C 
BRANCH  17  18
ATOM     18  C   UNL     1      -3.429  -1.539  -1.372  0.00  0.00    +0.079 C 
ATOM     19  C   UNL     1      -4.426  -2.606  -0.576  0.00  0.00    +0.019 C 
BRANCH  18  20
ATOM     20  N   UNL     1      -4.099  -0.259  -0.882  0.00  0.00    -0.272 NA
ATOM     21  C   UNL     1      -5.219  -0.385  -0.132  0.00  0.00    +0.072 C 
ATOM     22  C   UNL     1      -5.753   0.813   0.562  0.00  0.00    +0.017 C 
ATOM     23  C   UNL     1      -5.076   2.095   0.165  0.00  0.00    +0.003 C 
ATOM     24  C   UNL     1      -5.740   2.836  -0.944  0.00  0.00    +0.000 C 
ATOM     25  C   UNL     1      -3.603   1.949   0.070  0.00  0.00    +0.017 C 
ATOM     26  C   UNL     1      -3.256   0.847  -0.895  0.00  0.00    +0.072 C 
ENDBRANCH  18  20
ENDBRANCH  17  18
ENDBRANCH   3  17
TORSDOF 9
