REMARK  Name = 
REMARK  9 active torsions:
REMARK  status: ('A' for Active; 'I' for Inactive)
REMARK    1  A    between atoms: N_3  and  C_4
REMARK    2  A    between atoms: C_4  and  C_5
REMARK    3  A    between atoms: C_5  and  C_6
REMARK    4  A    between atoms: C_6  and  O_7
REMARK    5  A    between atoms: O_7  and  C_8
REMARK    6  A    between atoms: N_15  and  C_16
REMARK    7  A    between atoms: C_16  and  C_17
REMARK    8  A    between atoms: N_21  and  C_22
REMARK    9  A    between atoms: C_22  and  C_23
REMARK                            x       y       z     vdW  Elec       q    Type
REMARK                         _______ _______ _______ _____ _____    ______ ____
ROOT
ATOM      1  O   UNL     1       1.015   0.349   0.958  0.00  0.00    -0.249 OA
ATOM      2  C   UNL     1       1.168  -0.739   0.394  0.00  0.00    +0.339 C 
ATOM      3  N   UNL     1       0.674  -0.861  -0.896  0.00  0.00    -0.187 NA
ATOM      4  N   UNL     1       1.828  -1.759   1.103  0.00  0.00    -0.187 NA
ENDROOT
BRANCH   3   5
ATOM      5  C   UNL     1       0.023  -0.155  -1.824  0.00  0.00    +0.118 C 
BRANCH   5   6
ATOM      6  C   UNL     1      -1.443   0.382  -1.546  0.00  0.00    +0.038 C 
ATOM      7  C   UNL     1      -1.967  -0.889  -0.660  0.00  0.00    +0.074 C 
ATOM      8  N   UNL     1      -3.343  -0.608  -0.344  0.00  0.00    -0.269 NA
ATOM      9  C   UNL     1      -3.462   0.713   0.231  0.00  0.00    +0.072 C 
ATOM     10  C   UNL     1      -2.137   1.138   0.750  0.00  0.00    +0.017 C 
ATOM     11  C   UNL     1      -1.078   1.302  -0.288  0.00  0.00    +0.005 C 
BRANCH   8  12
ATOM     12  C   UNL     1      -4.213  -0.682  -1.496  0.00  0.00    +0.099 C 
BRANCH  12  13
ATOM     13  C   UNL     1      -5.603  -0.433  -1.048  0.00  0.00    -0.006 A 
ATOM     14  C   UNL     1      -6.057   0.856  -1.043  0.00  0.00    -0.003 A 
ATOM     15  C   UNL     1      -7.344   1.114  -0.632  0.00  0.00    -0.000 A 
ATOM     16  C   UNL     1      -8.214   0.116  -0.216  0.00  0.00    -0.000 A 
ATOM     17  C   UNL     1      -7.728  -1.184  -0.231  0.00  0.00    -0.000 A 
ATOM     18  C   UNL     1      -6.440  -1.433  -0.643  0.00  0.00    -0.003 A 
ENDBRANCH  12  13
ENDBRANCH   8  12
ENDBRANCH   5   6
ENDBRANCH   3   5
BRANCH   4  19
ATOM     19  C   UNL     1       2.407  -1.844   2.337  0.00  0.00    +0.121 C 
BRANCH  19  20
ATOM     20  C   UNL     1       3.540  -1.139   2.762  0.00  0.00    +0.071 C 
BRANCH  20  21
ATOM     21  C   UNL     1       3.787   0.281   2.836  0.00  0.00    +0.207 C 
BRANCH  21  22
ATOM     22  O   UNL     1       3.777   0.979   1.646  0.00  0.00    -0.475 OA
BRANCH  22  23
ATOM     23  C   UNL     1       4.675   0.652   0.640  0.00  0.00    +0.141 A 
ATOM     24  C   UNL     1       5.590  -0.369   0.800  0.00  0.00    +0.066 A 
ATOM     25  C   UNL     1       6.496  -0.719  -0.182  0.00  0.00    +0.143 A 
ATOM     26  F   UNL     1       7.358  -1.720   0.041  0.00  0.00    -0.204 F 
ATOM     27  C   UNL     1       6.459  -0.002  -1.353  0.00  0.00    +0.030 A 
ATOM     28  C   UNL     1       5.559   1.025  -1.551  0.00  0.00    +0.005 A 
ATOM     29  C   UNL     1       4.674   1.338  -0.544  0.00  0.00    +0.037 A 
ENDBRANCH  22  23
ENDBRANCH  21  22
ENDBRANCH  20  21
ENDBRANCH  19  20
ENDBRANCH   4  19
TORSDOF 9
