REMARK  Name = 
REMARK  5 active torsions:
REMARK  status: ('A' for Active; 'I' for Inactive)
REMARK    1  A    between atoms: N_5  and  C_6
REMARK    2  A    between atoms: C_6  and  C_8
REMARK    3  A    between atoms: C_8  and  N_9
REMARK    4  A    between atoms: N_12  and  C_13
REMARK    5  A    between atoms: C_13  and  C_14
REMARK                            x       y       z     vdW  Elec       q    Type
REMARK                         _______ _______ _______ _____ _____    ______ ____
ROOT
ATOM      1  N   UNL     1      -1.359  -0.386  -0.218  0.00  0.00    -0.186 NA
ATOM      2  C   UNL     1      -0.044  -0.174   0.178  0.00  0.00    +0.339 C 
ATOM      3  N   UNL     1       0.832  -1.081   0.775  0.00  0.00    -0.185 NA
ATOM      4  O   UNL     1       0.406   0.981  -0.028  0.00  0.00    -0.249 OA
ENDROOT
BRANCH   1   5
ATOM      5  C   UNL     1      -2.109   0.663  -0.809  0.00  0.00    +0.133 C 
BRANCH   5   6
ATOM      6  C   UNL     1      -3.606   0.073  -1.152  0.00  0.00    +0.079 C 
ATOM      7  C   UNL     1      -3.121  -1.453  -1.546  0.00  0.00    +0.019 C 
BRANCH   6  12
ATOM      8  C   UNL     1      -7.423   0.648   1.692  0.00  0.00    +0.000 C 
ATOM      9  C   UNL     1      -6.738   0.572   0.355  0.00  0.00    +0.003 C 
ATOM     10  C   UNL     1      -5.582   1.512   0.240  0.00  0.00    +0.017 C 
ATOM     11  C   UNL     1      -4.346   0.978   0.940  0.00  0.00    +0.072 C 
ATOM     12  N   UNL     1      -3.927  -0.292   0.356  0.00  0.00    -0.272 NA
ATOM     13  C   UNL     1      -4.981  -1.253   0.335  0.00  0.00    +0.072 C 
ATOM     14  C   UNL     1      -6.321  -0.789  -0.073  0.00  0.00    +0.017 C 
ENDBRANCH   6  12
ENDBRANCH   5   6
ENDBRANCH   1   5
BRANCH   3  15
ATOM     15  C   UNL     1       2.151  -0.947   1.195  0.00  0.00    +0.147 C 
BRANCH  15  16
ATOM     16  C   UNL     1       3.226  -0.613   0.226  0.00  0.00    +0.147 C 
ATOM     17  C   UNL     1       4.545  -0.575   0.975  0.00  0.00    +0.032 C 
ATOM     18  C   UNL     1       5.618   0.224   0.396  0.00  0.00    +0.003 C 
ATOM     19  C   UNL     1       5.449   0.875  -0.910  0.00  0.00    +0.000 C 
ATOM     20  C   UNL     1       6.840   0.960  -1.567  0.00  0.00    +0.000 C 
ATOM     21  C   UNL     1       5.005   2.344  -0.822  0.00  0.00    +0.000 C 
ATOM     22  C   UNL     1       4.576   0.166  -1.890  0.00  0.00    +0.000 C 
ATOM     23  C   UNL     1       4.569  -1.326  -1.746  0.00  0.00    +0.003 C 
ATOM     24  C   UNL     1       3.410  -1.708  -0.824  0.00  0.00    +0.032 C 
ATOM     25  O   UNL     1       2.932   0.603  -0.356  0.00  0.00    -0.224 OA
ENDBRANCH  15  16
ENDBRANCH   3  15
TORSDOF 5
