REMARK  Name = 
REMARK  8 active torsions:
REMARK  status: ('A' for Active; 'I' for Inactive)
REMARK    1  A    between atoms: C_2  and  C_3
REMARK    2  A    between atoms: C_3  and  C_4
REMARK    3  A    between atoms: C_4  and  C_5
REMARK    4  A    between atoms: C_5  and  N_7
REMARK    5  A    between atoms: C_9  and  C_10
REMARK    6  A    between atoms: C_10  and  N_12
REMARK    7  A    between atoms: C_13  and  C_15
REMARK    8  A    between atoms: C_19  and  O_20
REMARK                            x       y       z     vdW  Elec       q    Type
REMARK                         _______ _______ _______ _____ _____    ______ ____
ROOT
ATOM      1  C   UNL     1       0.708  -1.627  -1.315  0.00  0.00    +0.098 C 
ATOM      2  C   UNL     1      -0.215  -2.962  -1.413  0.00  0.00    +0.024 C 
ENDROOT
BRANCH   1   5
ATOM      3  N   UNL     1       3.115  -1.624   0.837  0.00  0.00    -0.274 NA
ATOM      4  C   UNL     1       2.350  -2.725   0.229  0.00  0.00    +0.075 C 
ATOM      5  C   UNL     1       1.107  -1.865   0.248  0.00  0.00    +0.052 C 
ATOM      6  C   UNL     1       2.018  -0.705   0.639  0.00  0.00    +0.075 C 
BRANCH   3   7
ATOM      7  C   UNL     1       4.142  -1.276  -0.296  0.00  0.00    +0.058 C 
ATOM      8  C   UNL     1       5.411  -1.885   0.563  0.00  0.00    +0.017 C 
BRANCH   7   9
ATOM      9  C   UNL     1       4.387   0.240   0.253  0.00  0.00    +0.021 C 
BRANCH   9  10
ATOM     10  C   UNL     1       3.282   0.992  -0.446  0.00  0.00    +0.027 C 
BRANCH  10  12
ATOM     11  C   UNL     1       2.244   3.075   0.406  0.00  0.00    -0.005 C 
ATOM     12  C   UNL     1       3.242   2.415  -0.143  0.00  0.00    -0.026 C 
ENDBRANCH  10  12
ENDBRANCH   9  10
ENDBRANCH   7   9
ENDBRANCH   3   7
ENDBRANCH   1   5
BRANCH   1  13
ATOM     13  N   UNL     1      -0.453  -0.647  -1.014  0.00  0.00    -0.202 NA
ATOM     14  C   UNL     1      -1.541  -1.008  -0.243  0.00  0.00    +0.283 C 
ATOM     15  O   UNL     1      -1.582  -2.171   0.223  0.00  0.00    -0.267 OA
BRANCH  14  16
ATOM     16  C   UNL     1      -2.612  -0.049   0.017  0.00  0.00    +0.139 A 
ATOM     17  N   UNL     1      -2.603   1.200  -0.450  0.00  0.00    -0.207 NA
ATOM     18  C   UNL     1      -3.628   2.002  -0.156  0.00  0.00    +0.225 A 
ATOM     19  C   UNL     1      -4.714   1.624   0.608  0.00  0.00    +0.058 A 
ATOM     20  C   UNL     1      -4.742   0.336   1.100  0.00  0.00    +0.006 A 
ATOM     21  C   UNL     1      -3.673  -0.476   0.785  0.00  0.00    +0.024 A 
BRANCH  18  22
ATOM     22  O   UNL     1      -3.650   3.318  -0.631  0.00  0.00    -0.456 OA
ATOM     23  C   UNL     1      -2.593   3.819  -1.424  0.00  0.00    +0.254 C 
ENDBRANCH  18  22
ENDBRANCH  14  16
ENDBRANCH   1  13
TORSDOF 8
