REMARK  Name = 
REMARK  8 active torsions:
REMARK  status: ('A' for Active; 'I' for Inactive)
REMARK    1  A    between atoms: C_2  and  C_3
REMARK    2  A    between atoms: C_3  and  C_5
REMARK    3  A    between atoms: C_5  and  N_6
REMARK    4  A    between atoms: C_8  and  C_9
REMARK    5  A    between atoms: C_9  and  N_11
REMARK    6  A    between atoms: C_12  and  C_14
REMARK    7  A    between atoms: C_14  and  C_15
REMARK    8  A    between atoms: C_20  and  N_21
REMARK                            x       y       z     vdW  Elec       q    Type
REMARK                         _______ _______ _______ _____ _____    ______ ____
ROOT
ATOM      1  N   UNL     1      -0.391  -0.187  -0.503  0.00  0.00    -0.207 NA
ATOM      2  C   UNL     1       0.395   0.224   0.534  0.00  0.00    +0.246 C 
ATOM      3  O   UNL     1      -0.004   0.242   1.729  0.00  0.00    -0.273 OA
ENDROOT
BRANCH   1   4
ATOM      4  C   UNL     1      -1.863  -0.692  -0.308  0.00  0.00    +0.098 C 
ATOM      5  C   UNL     1      -1.661  -1.727  -1.646  0.00  0.00    +0.024 C 
BRANCH   4   8
ATOM      6  N   UNL     1      -4.651   0.526  -1.039  0.00  0.00    -0.270 NA
ATOM      7  C   UNL     1      -3.525   1.188  -0.379  0.00  0.00    +0.075 C 
ATOM      8  C   UNL     1      -2.536   0.489  -1.279  0.00  0.00    +0.052 C 
ATOM      9  C   UNL     1      -3.701  -0.010  -1.984  0.00  0.00    +0.075 C 
BRANCH   6  10
ATOM     10  C   UNL     1      -5.175  -0.566  -0.266  0.00  0.00    +0.108 C 
BRANCH  10  11
ATOM     11  C   UNL     1      -6.527   0.016   0.491  0.00  0.00    +0.177 C 
ATOM     12  F   UNL     1      -6.308  -0.985   1.664  0.00  0.00    -0.236 F 
BRANCH  11  14
ATOM     13  C   UNL     1      -5.905   2.379   0.271  0.00  0.00    +0.003 C 
ATOM     14  C   UNL     1      -5.737   1.236   1.297  0.00  0.00    +0.037 C 
ENDBRANCH  11  14
ENDBRANCH  10  11
ENDBRANCH   6  10
ENDBRANCH   4   8
ENDBRANCH   1   4
BRANCH   2  15
ATOM     15  C   UNL     1       1.801   0.671   0.254  0.00  0.00    +0.114 C 
BRANCH  15  16
ATOM     16  C   UNL     1       2.826  -0.214   0.823  0.00  0.00    +0.002 A 
ATOM     17  C   UNL     1       4.083  -0.139   0.241  0.00  0.00    +0.070 A 
ATOM     18  C   UNL     1       5.115  -0.954   0.711  0.00  0.00    +0.016 A 
ATOM     19  C   UNL     1       4.915  -1.841   1.749  0.00  0.00    +0.001 A 
ATOM     20  C   UNL     1       3.664  -1.881   2.291  0.00  0.00    -0.000 A 
ATOM     21  C   UNL     1       2.588  -1.103   1.882  0.00  0.00    -0.002 A 
BRANCH  17  22
ATOM     22  N   UNL     1       4.376   0.760  -0.815  0.00  0.00    -0.180 NA
ATOM     23  C   UNL     1       5.715   0.804  -1.408  0.00  0.00    +0.246 C 
ATOM     24  O   UNL     1       6.516   0.011  -0.923  0.00  0.00    -0.273 OA
ATOM     25  C   UNL     1       5.992   1.752  -2.502  0.00  0.00    +0.097 C 
ENDBRANCH  17  22
ENDBRANCH  15  16
ENDBRANCH   2  15
TORSDOF 8
