REMARK  Name = 
REMARK  5 active torsions:
REMARK  status: ('A' for Active; 'I' for Inactive)
REMARK    1  A    between atoms: C_2  and  C_3
REMARK    2  A    between atoms: N_15  and  C_16
REMARK    3  A    between atoms: C_16  and  C_17
REMARK    4  A    between atoms: N_21  and  C_22
REMARK    5  A    between atoms: C_22  and  C_23
REMARK                            x       y       z     vdW  Elec       q    Type
REMARK                         _______ _______ _______ _____ _____    ______ ____
ROOT
ATOM      1  C   UNL     1       3.349  -2.031  -0.066  0.00  0.00    +0.006 C 
ATOM      2  C   UNL     1       3.771  -0.551   0.099  0.00  0.00    +0.039 C 
ATOM      3  C   UNL     1       2.828   0.383  -0.524  0.00  0.00    +0.099 C 
ATOM      4  N   UNL     1       1.660   0.379   0.366  0.00  0.00    -0.263 N 
ATOM      5  C   UNL     1       0.456   1.130   0.251  0.00  0.00    +0.323 C 
ATOM      6  N   UNL     1      -0.595   1.037   1.168  0.00  0.00    -0.188 NA
ATOM      7  O   UNL     1       0.290   1.920  -0.698  0.00  0.00    -0.251 OA
ATOM      8  C   UNL     1       1.929  -0.559   1.476  0.00  0.00    +0.095 C 
ATOM      9  C   UNL     1       3.456  -0.316   1.623  0.00  0.00    +0.027 C 
ENDROOT
BRANCH   2  10
ATOM     10  C   UNL     1       5.217  -0.412  -0.081  0.00  0.00    -0.019 A 
ATOM     11  C   UNL     1       6.050  -1.521  -0.114  0.00  0.00    +0.025 A 
ATOM     12  C   UNL     1       7.453  -1.367  -0.263  0.00  0.00    +0.140 A 
ATOM     13  F   UNL     1       8.224  -2.512  -0.269  0.00  0.00    -0.204 F 
ATOM     14  C   UNL     1       8.012  -0.187  -0.381  0.00  0.00    +0.030 A 
ATOM     15  C   UNL     1       7.245   0.948  -0.368  0.00  0.00    +0.002 A 
ATOM     16  C   UNL     1       5.843   0.802  -0.209  0.00  0.00    -0.004 A 
ENDBRANCH   2  10
BRANCH   6  17
ATOM     17  C   UNL     1      -1.802   1.494   1.457  0.00  0.00    +0.118 C 
BRANCH  17  18
ATOM     18  C   UNL     1      -3.005   1.324   0.454  0.00  0.00    +0.038 C 
ATOM     19  C   UNL     1      -2.523  -0.043  -0.328  0.00  0.00    +0.074 C 
ATOM     20  N   UNL     1      -3.440  -0.161  -1.405  0.00  0.00    -0.269 NA
ATOM     21  C   UNL     1      -3.964   0.960  -2.049  0.00  0.00    +0.072 C 
ATOM     22  C   UNL     1      -3.515   2.319  -1.693  0.00  0.00    +0.017 C 
ATOM     23  C   UNL     1      -2.338   2.233  -0.735  0.00  0.00    +0.005 C 
BRANCH  20  24
ATOM     24  C   UNL     1      -4.351  -1.285  -1.295  0.00  0.00    +0.099 C 
BRANCH  24  25
ATOM     25  C   UNL     1      -5.548  -0.940  -0.504  0.00  0.00    -0.006 A 
ATOM     26  C   UNL     1      -5.822   0.292  -0.008  0.00  0.00    -0.003 A 
ATOM     27  C   UNL     1      -6.922   0.620   0.721  0.00  0.00    -0.000 A 
ATOM     28  C   UNL     1      -7.860  -0.386   0.989  0.00  0.00    -0.000 A 
ATOM     29  C   UNL     1      -7.620  -1.647   0.498  0.00  0.00    -0.000 A 
ATOM     30  C   UNL     1      -6.480  -1.923  -0.239  0.00  0.00    -0.003 A 
ENDBRANCH  24  25
ENDBRANCH  20  24
ENDBRANCH  17  18
ENDBRANCH   6  17
TORSDOF 5
