REMARK  Name = 
REMARK  8 active torsions:
REMARK  status: ('A' for Active; 'I' for Inactive)
REMARK    1  A    between atoms: C_2  and  C_4
REMARK    2  A    between atoms: C_4  and  C_5
REMARK    3  A    between atoms: C_5  and  C_8
REMARK    4  A    between atoms: N_10  and  C_11
REMARK    5  A    between atoms: C_11  and  C_13
REMARK    6  A    between atoms: N_15  and  C_16
REMARK    7  A    between atoms: C_16  and  C_17
REMARK    8  A    between atoms: N_19  and  C_21
REMARK                            x       y       z     vdW  Elec       q    Type
REMARK                         _______ _______ _______ _____ _____    ______ ____
ROOT
ATOM      1  C   UNL     1       0.810   1.088   0.815  0.00  0.00    +0.098 C 
ATOM      2  C   UNL     1      -0.130   0.118   1.730  0.00  0.00    +0.024 C 
ENDROOT
BRANCH   1   3
ATOM      3  C   UNL     1      -0.054   0.946  -0.551  0.00  0.00    +0.052 C 
ATOM      4  C   UNL     1      -1.162  -0.044  -0.422  0.00  0.00    +0.076 C 
ATOM      5  N   UNL     1      -2.183   1.017  -0.333  0.00  0.00    -0.265 NA
ATOM      6  C   UNL     1      -1.129   1.998  -0.555  0.00  0.00    +0.076 C 
BRANCH   5   7
ATOM      7  C   UNL     1      -3.101   0.900  -1.439  0.00  0.00    +0.159 C 
BRANCH   7   8
ATOM      8  C   UNL     1      -4.255   0.061  -1.084  0.00  0.00    +0.242 C 
ATOM      9  N   UNL     1      -4.389  -0.484   0.198  0.00  0.00    -0.278 N 
ATOM     10  C   UNL     1      -3.411  -0.266   1.241  0.00  0.00    +0.115 C 
ATOM     11  O   UNL     1      -5.162  -0.179  -1.946  0.00  0.00    -0.273 OA
BRANCH   9  12
ATOM     12  C   UNL     1      -5.571  -1.298   0.532  0.00  0.00    +0.076 C 
ATOM     13  C   UNL     1      -6.698  -0.883  -0.422  0.00  0.00    +0.022 C 
ATOM     14  C   UNL     1      -5.993  -0.933   1.964  0.00  0.00    +0.022 C 
ENDBRANCH   9  12
ENDBRANCH   7   8
ENDBRANCH   5   7
ENDBRANCH   1   3
BRANCH   1  16
ATOM     15  C   UNL     1       2.939   0.391  -0.301  0.00  0.00    +0.240 C 
ATOM     16  N   UNL     1       1.795  -0.131   0.420  0.00  0.00    -0.207 NA
ATOM     17  O   UNL     1       3.060   1.623  -0.538  0.00  0.00    -0.273 OA
BRANCH  15  18
ATOM     18  C   UNL     1       3.948  -0.606  -0.741  0.00  0.00    +0.071 C 
ATOM     19  C   UNL     1       3.178  -1.617  -1.614  0.00  0.00    +0.009 C 
ATOM     20  C   UNL     1       4.905   0.079  -1.722  0.00  0.00    +0.009 C 
BRANCH  18  21
ATOM     21  C   UNL     1       4.616  -1.376   0.319  0.00  0.00    +0.009 C 
BRANCH  21  23
ATOM     22  C   UNL     1       6.711  -0.032   0.654  0.00  0.00    +0.000 C 
ATOM     23  C   UNL     1       5.525  -0.703   1.241  0.00  0.00    +0.000 C 
ATOM     24  C   UNL     1       5.753  -1.369   2.554  0.00  0.00    +0.000 C 
ENDBRANCH  21  23
ENDBRANCH  18  21
ENDBRANCH  15  18
ENDBRANCH   1  16
TORSDOF 8
