REMARK  Name = 
REMARK  6 active torsions:
REMARK  status: ('A' for Active; 'I' for Inactive)
REMARK    1  A    between atoms: C_2  and  O_5
REMARK    2  A    between atoms: O_5  and  C_6
REMARK    3  A    between atoms: N_19  and  C_20
REMARK    4  A    between atoms: C_20  and  C_21
REMARK    5  A    between atoms: N_25  and  C_26
REMARK    6  A    between atoms: C_26  and  C_27
REMARK                            x       y       z     vdW  Elec       q    Type
REMARK                         _______ _______ _______ _____ _____    ______ ____
ROOT
ATOM      1  C   UNL     1       5.526  -0.777  -0.567  0.00  0.00    +0.405 C 
ATOM      2  N   UNL     1       4.160  -1.076  -0.522  0.00  0.00    -0.246 N 
ATOM      3  C   UNL     1       3.168  -0.171   0.250  0.00  0.00    +0.097 C 
ATOM      4  C   UNL     1       2.994  -1.226   1.491  0.00  0.00    +0.023 C 
ATOM      5  C   UNL     1       1.898  -0.724   2.366  0.00  0.00    +0.023 C 
ATOM      6  C   UNL     1       0.671  -1.200   1.562  0.00  0.00    +0.095 C 
ATOM      7  N   UNL     1       0.733  -0.495   0.366  0.00  0.00    -0.263 N 
ATOM      8  C   UNL     1      -0.220   0.518  -0.004  0.00  0.00    +0.323 C 
ATOM      9  N   UNL     1      -1.285   0.847   0.851  0.00  0.00    -0.188 NA
ATOM     10  O   UNL     1      -0.060   1.088  -1.112  0.00  0.00    -0.251 OA
ATOM     11  C   UNL     1       1.828  -0.710  -0.709  0.00  0.00    +0.097 C 
ATOM     12  C   UNL     1       2.134  -2.294  -0.422  0.00  0.00    +0.043 C 
ATOM     13  C   UNL     1       3.484  -2.139  -1.104  0.00  0.00    +0.098 C 
ATOM     14  O   UNL     1       6.366  -1.511  -1.199  0.00  0.00    -0.226 OA
ENDROOT
BRANCH   1  15
ATOM     15  O   UNL     1       6.100   0.328   0.060  0.00  0.00    -0.442 OA
BRANCH  15  17
ATOM     16  C   UNL     1       8.166  -0.685   0.569  0.00  0.00    +0.044 C 
ATOM     17  C   UNL     1       7.491   0.547  -0.041  0.00  0.00    +0.138 C 
ATOM     18  C   UNL     1       7.942   1.807   0.604  0.00  0.00    +0.044 C 
ATOM     19  C   UNL     1       7.810   0.549  -1.540  0.00  0.00    +0.044 C 
ENDBRANCH  15  17
ENDBRANCH   1  15
BRANCH   9  20
ATOM     20  C   UNL     1      -2.275   1.708   0.750  0.00  0.00    +0.118 C 
BRANCH  20  21
ATOM     21  C   UNL     1      -3.386   1.580  -0.393  0.00  0.00    +0.038 C 
ATOM     22  C   UNL     1      -3.383  -0.068  -0.412  0.00  0.00    +0.074 C 
ATOM     23  N   UNL     1      -4.470  -0.318  -1.343  0.00  0.00    -0.269 NA
ATOM     24  C   UNL     1      -4.005  -0.027  -2.687  0.00  0.00    +0.072 C 
ATOM     25  C   UNL     1      -3.483   1.390  -2.816  0.00  0.00    +0.017 C 
ATOM     26  C   UNL     1      -2.480   1.717  -1.734  0.00  0.00    +0.005 C 
BRANCH  23  27
ATOM     27  C   UNL     1      -5.615   0.554  -1.075  0.00  0.00    +0.099 C 
BRANCH  27  28
ATOM     28  C   UNL     1      -6.158   0.322   0.287  0.00  0.00    -0.006 A 
ATOM     29  C   UNL     1      -5.652   1.060   1.324  0.00  0.00    -0.003 A 
ATOM     30  C   UNL     1      -6.132   0.865   2.581  0.00  0.00    -0.000 A 
ATOM     31  C   UNL     1      -7.108  -0.053   2.818  0.00  0.00    -0.000 A 
ATOM     32  C   UNL     1      -7.617  -0.794   1.783  0.00  0.00    -0.000 A 
ATOM     33  C   UNL     1      -7.142  -0.611   0.497  0.00  0.00    -0.003 A 
ENDBRANCH  27  28
ENDBRANCH  23  27
ENDBRANCH  20  21
ENDBRANCH   9  20
TORSDOF 6
