REMARK  Name = 
REMARK  6 active torsions:
REMARK  status: ('A' for Active; 'I' for Inactive)
REMARK    1  A    between atoms: C_2  and  O_5
REMARK    2  A    between atoms: O_5  and  C_6
REMARK    3  A    between atoms: N_19  and  C_20
REMARK    4  A    between atoms: C_20  and  C_21
REMARK    5  A    between atoms: N_25  and  C_26
REMARK    6  A    between atoms: C_26  and  C_27
REMARK                            x       y       z     vdW  Elec       q    Type
REMARK                         _______ _______ _______ _____ _____    ______ ____
ROOT
ATOM      1  C   UNL     1       2.988   0.290   0.460  0.00  0.00    +0.405 C 
ATOM      2  N   UNL     1       3.107  -1.026   0.702  0.00  0.00    -0.246 N 
ATOM      3  C   UNL     1       3.173  -2.179  -0.323  0.00  0.00    +0.097 C 
ATOM      4  C   UNL     1       4.520  -2.627   0.372  0.00  0.00    +0.023 C 
ATOM      5  C   UNL     1       3.823  -2.498   1.296  0.00  0.00    +0.023 C 
ATOM      6  C   UNL     1       2.158  -1.991   1.463  0.00  0.00    +0.095 C 
ATOM      7  N   UNL     1       1.305  -2.420   1.093  0.00  0.00    -0.263 N 
ATOM      8  C   UNL     1      -0.031  -2.309   1.033  0.00  0.00    +0.323 C 
ATOM      9  N   UNL     1      -0.760  -1.316   1.617  0.00  0.00    -0.188 NA
ATOM     10  O   UNL     1      -0.701  -3.192   0.382  0.00  0.00    -0.251 OA
ATOM     11  C   UNL     1       2.278  -3.381   0.555  0.00  0.00    +0.097 C 
ATOM     12  C   UNL     1       3.108  -3.213   2.011  0.00  0.00    +0.043 C 
ATOM     13  C   UNL     1       3.233  -1.573   2.105  0.00  0.00    +0.098 C 
ATOM     14  O   UNL     1       2.977   1.139   1.381  0.00  0.00    -0.226 OA
ENDROOT
BRANCH   1  15
ATOM     15  O   UNL     1       2.868   0.802  -0.814  0.00  0.00    -0.442 OA
BRANCH  15  17
ATOM     16  C   UNL     1       3.893   2.990  -0.569  0.00  0.00    +0.044 C 
ATOM     17  C   UNL     1       2.744   2.167  -1.058  0.00  0.00    +0.138 C 
ATOM     18  C   UNL     1       2.571   2.305  -2.572  0.00  0.00    +0.044 C 
ATOM     19  C   UNL     1       1.471   2.656  -0.429  0.00  0.00    +0.044 C 
ENDBRANCH  15  17
ENDBRANCH   1  15
BRANCH   9  20
ATOM     20  C   UNL     1      -2.019  -0.881   1.770  0.00  0.00    +0.118 C 
BRANCH  20  21
ATOM     21  C   UNL     1      -2.854  -0.443   0.499  0.00  0.00    +0.038 C 
ATOM     22  C   UNL     1      -1.632   0.239  -0.312  0.00  0.00    +0.074 C 
ATOM     23  N   UNL     1      -2.105   0.502  -1.654  0.00  0.00    -0.269 NA
ATOM     24  C   UNL     1      -1.918  -0.769  -2.335  0.00  0.00    +0.072 C 
ATOM     25  C   UNL     1      -2.829  -1.733  -1.689  0.00  0.00    +0.017 C 
ATOM     26  C   UNL     1      -2.824  -1.847  -0.245  0.00  0.00    +0.005 C 
BRANCH  23  27
ATOM     27  C   UNL     1      -3.527   0.783  -1.686  0.00  0.00    +0.099 C 
BRANCH  27  28
ATOM     28  C   UNL     1      -3.860   2.063  -1.042  0.00  0.00    -0.006 A 
ATOM     29  C   UNL     1      -3.837   3.218  -1.785  0.00  0.00    -0.003 A 
ATOM     30  C   UNL     1      -4.148   4.400  -1.176  0.00  0.00    -0.000 A 
ATOM     31  C   UNL     1      -4.483   4.460   0.159  0.00  0.00    -0.000 A 
ATOM     32  C   UNL     1      -4.500   3.290   0.883  0.00  0.00    -0.000 A 
ATOM     33  C   UNL     1      -4.190   2.095   0.289  0.00  0.00    -0.003 A 
ENDBRANCH  27  28
ENDBRANCH  23  27
ENDBRANCH  20  21
ENDBRANCH   9  20
TORSDOF 6
