REMARK  Name = 
REMARK  8 active torsions:
REMARK  status: ('A' for Active; 'I' for Inactive)
REMARK    1  A    between atoms: C_2  and  N_3
REMARK    2  A    between atoms: N_3  and  C_23
REMARK    3  A    between atoms: C_4  and  C_6
REMARK    4  A    between atoms: C_6  and  N_7
REMARK    5  A    between atoms: C_9  and  C_10
REMARK    6  A    between atoms: C_10  and  N_12
REMARK    7  A    between atoms: C_13  and  C_15
REMARK    8  A    between atoms: C_15  and  C_16
REMARK                            x       y       z     vdW  Elec       q    Type
REMARK                         _______ _______ _______ _____ _____    ______ ____
ROOT
ATOM      1  N   UNL     1       1.337   0.252   0.199  0.00  0.00    -0.265 NA
ATOM      2  C   UNL     1       0.506   0.770   1.255  0.00  0.00    +0.076 C 
ATOM      3  C   UNL     1      -0.523   1.037   0.146  0.00  0.00    +0.052 C 
ATOM      4  C   UNL     1       0.770   1.262  -0.672  0.00  0.00    +0.076 C 
ENDROOT
BRANCH   3   5
ATOM      5  C   UNL     1      -0.879  -0.538  -0.348  0.00  0.00    +0.098 C 
ATOM      6  C   UNL     1      -1.025  -0.077  -1.932  0.00  0.00    +0.024 C 
BRANCH   5   7
ATOM      7  N   UNL     1      -2.377  -0.431   0.081  0.00  0.00    -0.207 NA
ATOM      8  C   UNL     1      -3.261   0.406  -0.532  0.00  0.00    +0.248 C 
ATOM      9  O   UNL     1      -2.812   1.092  -1.467  0.00  0.00    -0.273 OA
BRANCH   8  10
ATOM     10  C   UNL     1      -4.680   0.518  -0.134  0.00  0.00    +0.137 C 
BRANCH  10  11
ATOM     11  C   UNL     1      -4.940  -0.192   1.148  0.00  0.00    +0.126 A 
ATOM     12  C   UNL     1      -5.064  -1.556   1.282  0.00  0.00    +0.118 A 
ATOM     13  C   UNL     1      -4.970  -2.616   0.244  0.00  0.00    +0.057 C 
ATOM     14  N   UNL     1      -5.291  -1.775   2.604  0.00  0.00    -0.053 NA
ATOM     15  O   UNL     1      -5.305  -0.609   3.225  0.00  0.00    -0.242 OA
ATOM     16  N   UNL     1      -5.092   0.355   2.359  0.00  0.00    -0.053 NA
ENDBRANCH  10  11
ENDBRANCH   8  10
ENDBRANCH   5   7
ENDBRANCH   3   5
BRANCH   1  17
ATOM     17  C   UNL     1       2.731   0.286   0.456  0.00  0.00    +0.159 C 
BRANCH  17  19
ATOM     18  N   UNL     1       4.996  -0.049  -0.569  0.00  0.00    -0.280 N 
ATOM     19  C   UNL     1       3.584  -0.043  -0.701  0.00  0.00    +0.242 C 
ATOM     20  O   UNL     1       3.056  -0.324  -1.807  0.00  0.00    -0.273 OA
BRANCH  18  21
ATOM     21  C   UNL     1       5.848  -0.392  -1.670  0.00  0.00    +0.075 C 
ATOM     22  C   UNL     1       5.490  -0.055  -3.084  0.00  0.00    +0.022 C 
ATOM     23  C   UNL     1       6.524   0.786  -2.350  0.00  0.00    +0.022 C 
ENDBRANCH  18  21
BRANCH  18  25
ATOM     24  C   UNL     1       5.782  -0.962   1.557  0.00  0.00    +0.023 C 
ATOM     25  C   UNL     1       5.593   0.281   0.710  0.00  0.00    +0.093 C 
ENDBRANCH  18  25
ENDBRANCH  17  19
ENDBRANCH   1  17
TORSDOF 8
