REMARK  Name = 
REMARK  7 active torsions:
REMARK  status: ('A' for Active; 'I' for Inactive)
REMARK    1  A    between atoms: O_2  and  N_3
REMARK    2  A    between atoms: N_3  and  C_4
REMARK    3  A    between atoms: C_4  and  C_5
REMARK    4  A    between atoms: N_14  and  C_15
REMARK    5  A    between atoms: C_15  and  C_16
REMARK    6  A    between atoms: N_20  and  C_21
REMARK    7  A    between atoms: C_21  and  C_22
REMARK                            x       y       z     vdW  Elec       q    Type
REMARK                         _______ _______ _______ _____ _____    ______ ____
ROOT
ATOM      1  N   UNL     1      -2.813   0.620   0.775  0.00  0.00    -0.147 N 
ATOM      2  C   UNL     1      -1.678   0.761  -0.033  0.00  0.00    +0.346 C 
ATOM      3  N   UNL     1      -0.785  -0.237  -0.460  0.00  0.00    -0.187 NA
ATOM      4  O   UNL     1      -1.395   1.946  -0.445  0.00  0.00    -0.249 OA
ENDROOT
BRANCH   1   6
ATOM      5  C   UNL     1      -3.698   2.454  -0.102  0.00  0.00    +0.206 C 
ATOM      6  O   UNL     1      -3.521   1.745   1.091  0.00  0.00    -0.259 OA
ENDBRANCH   1   6
BRANCH   3   7
ATOM      7  C   UNL     1       0.378   0.092  -1.320  0.00  0.00    +0.118 C 
BRANCH   7   8
ATOM      8  C   UNL     1       1.103   1.161  -0.308  0.00  0.00    +0.038 C 
ATOM      9  C   UNL     1       2.622   0.860  -0.931  0.00  0.00    +0.074 C 
ATOM     10  N   UNL     1       3.391   1.660  -0.040  0.00  0.00    -0.269 NA
ATOM     11  C   UNL     1       3.455   1.238   1.313  0.00  0.00    +0.072 C 
ATOM     12  C   UNL     1       2.101   0.884   1.888  0.00  0.00    +0.017 C 
ATOM     13  C   UNL     1       1.296   0.054   0.890  0.00  0.00    +0.005 C 
BRANCH  10  14
ATOM     14  C   UNL     1       4.674   1.977  -0.551  0.00  0.00    +0.099 C 
BRANCH  14  15
ATOM     15  C   UNL     1       5.624   0.851  -0.500  0.00  0.00    -0.006 A 
ATOM     16  C   UNL     1       5.158  -0.448  -0.496  0.00  0.00    -0.003 A 
ATOM     17  C   UNL     1       6.030  -1.541  -0.456  0.00  0.00    -0.000 A 
ATOM     18  C   UNL     1       7.390  -1.295  -0.420  0.00  0.00    -0.000 A 
ATOM     19  C   UNL     1       7.884  -0.008  -0.424  0.00  0.00    -0.000 A 
ATOM     20  C   UNL     1       6.999   1.046  -0.464  0.00  0.00    -0.003 A 
ENDBRANCH  14  15
ENDBRANCH  10  14
ENDBRANCH   7   8
ENDBRANCH   3   7
BRANCH   1  21
ATOM     21  C   UNL     1      -3.348  -0.610   1.305  0.00  0.00    +0.152 C 
BRANCH  21  22
ATOM     22  C   UNL     1      -4.441  -1.184   0.480  0.00  0.00    +0.000 A 
ATOM     23  C   UNL     1      -4.393  -2.471   0.004  0.00  0.00    -0.002 A 
ATOM     24  C   UNL     1      -5.429  -2.996  -0.752  0.00  0.00    +0.011 A 
ATOM     25  C   UNL     1      -6.552  -2.253  -1.061  0.00  0.00    +0.058 A 
ATOM     26 CL   UNL     1      -7.879  -2.925  -2.021  0.00  0.00    -0.082 Cl
ATOM     27  C   UNL     1      -6.602  -0.952  -0.582  0.00  0.00    +0.011 A 
ATOM     28  C   UNL     1      -5.574  -0.429   0.169  0.00  0.00    -0.002 A 
ENDBRANCH  21  22
ENDBRANCH   1  21
TORSDOF 7
