REMARK  Name = 
REMARK  9 active torsions:
REMARK  status: ('A' for Active; 'I' for Inactive)
REMARK    1  A    between atoms: C_2  and  N_3
REMARK    2  A    between atoms: C_2  and  C_14
REMARK    3  A    between atoms: C_4  and  C_6
REMARK    4  A    between atoms: C_10  and  C_11
REMARK    5  A    between atoms: N_16  and  C_17
REMARK    6  A    between atoms: C_17  and  C_18
REMARK    7  A    between atoms: C_18  and  C_19
REMARK    8  A    between atoms: C_19  and  C_20
REMARK    9  A    between atoms: C_20  and  C_21
REMARK                            x       y       z     vdW  Elec       q    Type
REMARK                         _______ _______ _______ _____ _____    ______ ____
ROOT
ATOM      1  C   UNL     1       0.569   1.154  -0.183  0.00  0.00    +0.024 C 
ATOM      2  C   UNL     1       0.208   1.217   1.395  0.00  0.00    +0.098 C 
ENDROOT
BRANCH   2   3
ATOM      3  C   UNL     1       1.236   0.097   1.895  0.00  0.00    +0.052 C 
ATOM      4  C   UNL     1       2.557   0.271   1.199  0.00  0.00    +0.075 C 
ATOM      5  N   UNL     1       2.490  -1.131   0.856  0.00  0.00    -0.272 NA
ATOM      6  C   UNL     1       1.099  -1.236   1.339  0.00  0.00    +0.075 C 
BRANCH   5   7
ATOM      7  C   UNL     1       2.678  -1.322  -0.555  0.00  0.00    +0.072 C 
BRANCH   7   8
ATOM      8  C   UNL     1       4.143  -1.042  -0.839  0.00  0.00    +0.017 C 
BRANCH   8   9
ATOM      9  C   UNL     1       4.950  -2.019  -0.014  0.00  0.00    +0.004 C 
BRANCH   9  10
ATOM     10  C   UNL     1       6.409  -1.692  -0.314  0.00  0.00    +0.038 C 
BRANCH  10  11
ATOM     11  C   UNL     1       6.630  -0.248   0.097  0.00  0.00    +0.193 C 
ATOM     12  F   UNL     1       7.936   0.081  -0.164  0.00  0.00    -0.234 F 
ENDBRANCH  10  11
ENDBRANCH   9  10
ENDBRANCH   8   9
ENDBRANCH   7   8
ENDBRANCH   5   7
ENDBRANCH   2   3
BRANCH   2  13
ATOM     13  N   UNL     1      -1.016   0.270   1.299  0.00  0.00    -0.202 NA
ATOM     14  C   UNL     1      -2.035   0.699   0.382  0.00  0.00    +0.285 C 
ATOM     15  O   UNL     1      -1.847   1.792  -0.273  0.00  0.00    -0.267 OA
BRANCH  14  16
ATOM     16  C   UNL     1      -3.241  -0.062   0.196  0.00  0.00    +0.169 A 
ATOM     17  C   UNL     1      -4.278   0.298  -0.639  0.00  0.00    +0.146 A 
ATOM     18  O   UNL     1      -5.243  -0.613  -0.547  0.00  0.00    -0.435 OA
ATOM     19  C   UNL     1      -4.870  -1.546   0.312  0.00  0.00    +0.285 A 
ATOM     20  N   UNL     1      -3.623  -1.198   0.770  0.00  0.00    -0.200 NA
BRANCH  17  21
ATOM     21  C   UNL     1      -4.287   1.508  -1.495  0.00  0.00    +0.059 C 
ATOM     22  C   UNL     1      -4.885   2.784  -1.101  0.00  0.00    +0.008 C 
ATOM     23  C   UNL     1      -5.577   1.939  -2.135  0.00  0.00    +0.008 C 
ENDBRANCH  17  21
ENDBRANCH  14  16
ENDBRANCH   2  13
TORSDOF 9
