REMARK  Name = 
REMARK  8 active torsions:
REMARK  status: ('A' for Active; 'I' for Inactive)
REMARK    1  A    between atoms: C_2  and  C_3
REMARK    2  A    between atoms: C_3  and  C_4
REMARK    3  A    between atoms: C_4  and  C_5
REMARK    4  A    between atoms: C_5  and  N_7
REMARK    5  A    between atoms: C_9  and  C_10
REMARK    6  A    between atoms: C_10  and  N_12
REMARK    7  A    between atoms: C_13  and  C_15
REMARK    8  A    between atoms: C_19  and  O_20
REMARK                            x       y       z     vdW  Elec       q    Type
REMARK                         _______ _______ _______ _____ _____    ______ ____
ROOT
ATOM      1  C   UNL     1      -0.164   1.194  -0.076  0.00  0.00    +0.098 C 
ATOM      2  C   UNL     1      -0.722   1.164   1.437  0.00  0.00    +0.024 C 
ENDROOT
BRANCH   1   5
ATOM      3  N   UNL     1      -3.121  -0.057   0.152  0.00  0.00    -0.274 NA
ATOM      4  C   UNL     1      -1.848  -0.765   0.142  0.00  0.00    +0.075 C 
ATOM      5  C   UNL     1      -1.252   0.197  -0.728  0.00  0.00    +0.052 C 
ATOM      6  C   UNL     1      -2.472   1.042  -0.429  0.00  0.00    +0.075 C 
BRANCH   3   7
ATOM      7  C   UNL     1      -3.989  -0.611  -1.038  0.00  0.00    +0.058 C 
ATOM      8  C   UNL     1      -5.014  -1.377  -0.036  0.00  0.00    +0.017 C 
BRANCH   7   9
ATOM      9  C   UNL     1      -4.896   0.691  -1.255  0.00  0.00    +0.021 C 
BRANCH   9  10
ATOM     10  C   UNL     1      -5.218   1.487  -0.166  0.00  0.00    +0.027 C 
BRANCH  10  12
ATOM     11  C   UNL     1      -6.546   0.307   1.567  0.00  0.00    -0.005 C 
ATOM     12  C   UNL     1      -5.914   1.270   1.018  0.00  0.00    -0.026 C 
ENDBRANCH  10  12
ENDBRANCH   9  10
ENDBRANCH   7   9
ENDBRANCH   3   7
ENDBRANCH   1   5
BRANCH   1  13
ATOM     13  N   UNL     1       1.012   0.478  -0.028  0.00  0.00    -0.202 NA
ATOM     14  C   UNL     1       1.652  -0.664   0.218  0.00  0.00    +0.283 C 
ATOM     15  O   UNL     1       0.915  -1.642   0.598  0.00  0.00    -0.267 OA
BRANCH  14  16
ATOM     16  C   UNL     1       3.123  -0.834   0.075  0.00  0.00    +0.139 A 
ATOM     17  N   UNL     1       3.861   0.073  -0.545  0.00  0.00    -0.207 NA
ATOM     18  C   UNL     1       5.171   0.016  -0.739  0.00  0.00    +0.225 A 
ATOM     19  C   UNL     1       5.812  -1.114  -0.226  0.00  0.00    +0.058 A 
ATOM     20  C   UNL     1       5.075  -2.053   0.410  0.00  0.00    +0.006 A 
ATOM     21  C   UNL     1       3.693  -1.976   0.601  0.00  0.00    +0.024 A 
BRANCH  18  22
ATOM     22  O   UNL     1       5.773   1.033  -1.413  0.00  0.00    -0.456 OA
ATOM     23  C   UNL     1       5.070   2.140  -1.893  0.00  0.00    +0.254 C 
ENDBRANCH  18  22
ENDBRANCH  14  16
ENDBRANCH   1  13
TORSDOF 8
