REMARK  Name = 
REMARK  8 active torsions:
REMARK  status: ('A' for Active; 'I' for Inactive)
REMARK    1  A    between atoms: C_2  and  O_3
REMARK    2  A    between atoms: O_3  and  C_4
REMARK    3  A    between atoms: C_4  and  C_5
REMARK    4  A    between atoms: C_5  and  N_6
REMARK    5  A    between atoms: C_8  and  C_9
REMARK    6  A    between atoms: C_9  and  N_11
REMARK    7  A    between atoms: C_12  and  C_14
REMARK    8  A    between atoms: C_19  and  C_20
REMARK                            x       y       z     vdW  Elec       q    Type
REMARK                         _______ _______ _______ _____ _____    ______ ____
ROOT
ATOM      1  N   UNL     1      -0.323  -1.249  -0.656  0.00  0.00    -0.203 NA
ATOM      2  C   UNL     1      -1.193  -0.303  -0.142  0.00  0.00    +0.265 C 
ATOM      3  O   UNL     1      -0.706   0.561   0.617  0.00  0.00    -0.268 OA
ENDROOT
BRANCH   2   4
ATOM      4  C   UNL     1      -2.611  -0.312  -0.461  0.00  0.00    +0.062 A 
ATOM      5  C   UNL     1      -3.534   0.334   0.314  0.00  0.00    +0.095 A 
ATOM      6  C   UNL     1      -4.877   0.260  -0.049  0.00  0.00    +0.103 A 
ATOM      7  N   UNL     1      -5.269  -0.422  -1.130  0.00  0.00    -0.242 NA
ATOM      8  C   UNL     1      -4.425  -1.051  -1.894  0.00  0.00    +0.099 A 
ATOM      9  C   UNL     1      -3.069  -1.018  -1.591  0.00  0.00    +0.025 A 
BRANCH   5  10
ATOM     10  C   UNL     1      -3.125   1.100   1.486  0.00  0.00    +0.420 C 
ATOM     11  F   UNL     1      -2.525   0.368   2.486  0.00  0.00    -0.166 F 
ATOM     12  F   UNL     1      -2.431   2.285   1.184  0.00  0.00    -0.166 F 
ATOM     13  F   UNL     1      -4.296   1.619   2.076  0.00  0.00    -0.166 F 
ENDBRANCH   5  10
ENDBRANCH   2   4
BRANCH   1  14
ATOM     14  C   UNL     1       1.221  -1.167  -0.238  0.00  0.00    +0.098 C 
ATOM     15  C   UNL     1       0.824  -1.048   1.380  0.00  0.00    +0.024 C 
BRANCH  14  18
ATOM     16  N   UNL     1       3.380   0.478  -0.327  0.00  0.00    -0.270 NA
ATOM     17  C   UNL     1       2.448   0.703  -1.451  0.00  0.00    +0.075 C 
ATOM     18  C   UNL     1       1.315   0.469  -0.433  0.00  0.00    +0.052 C 
ATOM     19  C   UNL     1       2.353   0.943   0.550  0.00  0.00    +0.075 C 
BRANCH  16  20
ATOM     20  C   UNL     1       3.634  -0.975  -0.291  0.00  0.00    +0.105 C 
BRANCH  20  21
ATOM     21  C   UNL     1       4.916  -1.164  -1.143  0.00  0.00    +0.159 C 
BRANCH  21  22
ATOM     22  O   UNL     1       5.905  -0.436  -0.451  0.00  0.00    -0.352 OA
BRANCH  22  24
ATOM     23  C   UNL     1       6.768   1.551   0.474  0.00  0.00    +0.035 C 
ATOM     24  C   UNL     1       5.619   0.897  -0.309  0.00  0.00    +0.142 C 
ENDBRANCH  22  24
ENDBRANCH  21  22
ENDBRANCH  20  21
ENDBRANCH  16  20
ENDBRANCH  14  18
ENDBRANCH   1  14
TORSDOF 8
