REMARK  Name = 
REMARK  6 active torsions:
REMARK  status: ('A' for Active; 'I' for Inactive)
REMARK    1  A    between atoms: C_6  and  C_7
REMARK    2  A    between atoms: C_7  and  N_8
REMARK    3  A    between atoms: C_10  and  C_11
REMARK    4  A    between atoms: C_11  and  N_13
REMARK    5  A    between atoms: C_14  and  C_16
REMARK    6  A    between atoms: C_16  and  C_18
REMARK                            x       y       z     vdW  Elec       q    Type
REMARK                         _______ _______ _______ _____ _____    ______ ____
ROOT
ATOM      1  C   UNL     1      -0.113  -0.093  -1.007  0.00  0.00    +0.098 C 
ATOM      2  C   UNL     1      -0.382  -1.754  -1.026  0.00  0.00    +0.024 C 
ENDROOT
BRANCH   1   5
ATOM      3  N   UNL     1      -2.129   0.217  -0.553  0.00  0.00    -0.269 NA
ATOM      4  C   UNL     1      -1.599   1.350   0.116  0.00  0.00    +0.075 C 
ATOM      5  C   UNL     1      -0.649   0.125   0.568  0.00  0.00    +0.052 C 
ATOM      6  C   UNL     1      -1.978  -0.434   0.806  0.00  0.00    +0.075 C 
BRANCH   3   7
ATOM      7  C   UNL     1      -3.268  -0.147  -1.157  0.00  0.00    +0.104 C 
BRANCH   7  10
ATOM      8  C   UNL     1      -5.233  -1.740   0.603  0.00  0.00    +0.055 C 
ATOM      9  C   UNL     1      -5.440  -0.339   0.140  0.00  0.00    +0.098 A 
ATOM     10  C   UNL     1      -4.456   0.401  -0.518  0.00  0.00    +0.051 A 
ATOM     11  C   UNL     1      -4.917   1.695  -0.697  0.00  0.00    +0.210 A 
ATOM     12  O   UNL     1      -6.150   1.670  -0.150  0.00  0.00    -0.351 OA
ATOM     13  N   UNL     1      -6.441   0.542   0.318  0.00  0.00    -0.082 NA
ENDBRANCH   7  10
ENDBRANCH   3   7
ENDBRANCH   1   5
BRANCH   1  14
ATOM     14  N   UNL     1       1.334  -0.266  -0.390  0.00  0.00    -0.207 NA
ATOM     15  C   UNL     1       2.142  -1.383  -0.614  0.00  0.00    +0.245 C 
ATOM     16  O   UNL     1       1.746  -2.263  -1.419  0.00  0.00    -0.273 OA
BRANCH  15  17
ATOM     17  C   UNL     1       3.448  -1.447   0.134  0.00  0.00    +0.103 C 
ATOM     18  C   UNL     1       4.473  -2.273  -0.584  0.00  0.00    +0.014 C 
BRANCH  17  19
ATOM     19  C   UNL     1       3.988   0.015   0.047  0.00  0.00    +0.017 A 
ATOM     20  C   UNL     1       4.638   0.569   1.183  0.00  0.00    +0.079 A 
ATOM     21  C   UNL     1       4.947  -0.196   2.414  0.00  0.00    +0.054 C 
ATOM     22  N   UNL     1       4.793   1.863   0.885  0.00  0.00    -0.153 NA
ATOM     23  N   UNL     1       4.307   2.132  -0.338  0.00  0.00    -0.153 NA
ATOM     24  C   UNL     1       3.794   0.952  -0.853  0.00  0.00    +0.079 A 
ATOM     25  C   UNL     1       3.145   0.803  -2.192  0.00  0.00    +0.054 C 
ENDBRANCH  17  19
ENDBRANCH  15  17
ENDBRANCH   1  14
TORSDOF 6
