REMARK  Name = 
REMARK  6 active torsions:
REMARK  status: ('A' for Active; 'I' for Inactive)
REMARK    1  A    between atoms: C_5  and  C_6
REMARK    2  A    between atoms: C_6  and  N_7
REMARK    3  A    between atoms: N_10  and  C_11
REMARK    4  A    between atoms: C_11  and  C_12
REMARK    5  A    between atoms: N_16  and  C_17
REMARK    6  A    between atoms: C_17  and  C_18
REMARK                            x       y       z     vdW  Elec       q    Type
REMARK                         _______ _______ _______ _____ _____    ______ ____
ROOT
ATOM      1  N   UNL     1       2.699  -0.617   0.465  0.00  0.00    -0.186 NA
ATOM      2  C   UNL     1       1.445  -0.189   0.986  0.00  0.00    +0.339 C 
ATOM      3  N   UNL     1       0.485  -1.076   1.589  0.00  0.00    -0.187 NA
ATOM      4  O   UNL     1       1.139   1.037   0.934  0.00  0.00    -0.249 OA
ENDROOT
BRANCH   1   5
ATOM      5  C   UNL     1       3.515   0.447  -0.097  0.00  0.00    +0.099 C 
ATOM      6  C   UNL     1       2.759   1.414  -0.925  0.00  0.00    +0.024 C 
ATOM      7  C   UNL     1       3.271   2.550  -0.074  0.00  0.00    +0.004 C 
ATOM      8  C   UNL     1       3.696   1.542   0.977  0.00  0.00    +0.024 C 
BRANCH   5  13
ATOM      9  C   UNL     1       8.724  -0.920  -2.207  0.00  0.00    +0.031 C 
ATOM     10  C   UNL     1       7.360  -0.559  -1.685  0.00  0.00    -0.022 A 
ATOM     11  C   UNL     1       6.534   0.343  -2.315  0.00  0.00    -0.005 A 
ATOM     12  C   UNL     1       5.297   0.643  -1.797  0.00  0.00    -0.003 A 
ATOM     13  C   UNL     1       4.843   0.047  -0.628  0.00  0.00    -0.004 A 
ATOM     14  C   UNL     1       5.667  -0.852  -0.003  0.00  0.00    -0.003 A 
ATOM     15  C   UNL     1       6.914  -1.157  -0.523  0.00  0.00    -0.005 A 
ENDBRANCH   5  13
ENDBRANCH   1   5
BRANCH   3  16
ATOM     16  C   UNL     1      -0.758  -0.509   2.134  0.00  0.00    +0.118 C 
BRANCH  16  17
ATOM     17  C   UNL     1      -1.449   0.214   0.866  0.00  0.00    +0.038 C 
ATOM     18  C   UNL     1      -2.963   0.121   1.467  0.00  0.00    +0.074 C 
ATOM     19  N   UNL     1      -3.640   0.914   0.480  0.00  0.00    -0.269 NA
ATOM     20  C   UNL     1      -3.286   0.507  -0.841  0.00  0.00    +0.072 C 
ATOM     21  C   UNL     1      -2.920  -0.987  -0.741  0.00  0.00    +0.017 C 
ATOM     22  C   UNL     1      -1.590  -1.156  -0.005  0.00  0.00    +0.005 C 
BRANCH  19  23
ATOM     23  C   UNL     1      -4.951   1.325   0.722  0.00  0.00    +0.099 C 
BRANCH  23  24
ATOM     24  C   UNL     1      -6.026   0.383   0.438  0.00  0.00    -0.006 A 
ATOM     25  C   UNL     1      -7.327   0.804   0.696  0.00  0.00    -0.003 A 
ATOM     26  C   UNL     1      -8.415   0.009   0.472  0.00  0.00    -0.000 A 
ATOM     27  C   UNL     1      -8.225  -1.253  -0.026  0.00  0.00    -0.000 A 
ATOM     28  C   UNL     1      -6.956  -1.697  -0.290  0.00  0.00    -0.000 A 
ATOM     29  C   UNL     1      -5.843  -0.900  -0.068  0.00  0.00    -0.003 A 
ENDBRANCH  23  24
ENDBRANCH  19  23
ENDBRANCH  16  17
ENDBRANCH   3  16
TORSDOF 6
