REMARK  Name = 
REMARK  7 active torsions:
REMARK  status: ('A' for Active; 'I' for Inactive)
REMARK    1  A    between atoms: N_3  and  C_4
REMARK    2  A    between atoms: C_4  and  C_5
REMARK    3  A    between atoms: N_9  and  C_10
REMARK    4  A    between atoms: C_10  and  C_11
REMARK    5  A    between atoms: N_18  and  C_19
REMARK    6  A    between atoms: C_19  and  C_20
REMARK    7  A    between atoms: C_20  and  C_21
REMARK                            x       y       z     vdW  Elec       q    Type
REMARK                         _______ _______ _______ _____ _____    ______ ____
ROOT
ATOM      1  O   UNL     1      -0.157   1.279   1.905  0.00  0.00    -0.249 OA
ATOM      2  C   UNL     1      -0.421   0.102   1.563  0.00  0.00    +0.339 C 
ATOM      3  N   UNL     1      -1.808  -0.110   1.210  0.00  0.00    -0.186 NA
ATOM      4  N   UNL     1       0.510  -0.931   1.517  0.00  0.00    -0.187 NA
ENDROOT
BRANCH   3   5
ATOM      5  C   UNL     1      -2.706   1.005   1.283  0.00  0.00    +0.136 C 
BRANCH   5   6
ATOM      6  C   UNL     1      -4.111   0.594   0.877  0.00  0.00    +0.124 C 
ATOM      7  N   UNL     1      -4.101   0.285  -0.447  0.00  0.00    -0.268 NA
ATOM      8  C   UNL     1      -5.494   0.313  -1.112  0.00  0.00    +0.087 C 
ATOM      9  C   UNL     1      -5.582  -1.308  -1.299  0.00  0.00    +0.020 C 
ATOM     10  C   UNL     1      -4.242  -1.538  -1.953  0.00  0.00    +0.019 C 
ATOM     11  C   UNL     1      -6.359   0.284   0.277  0.00  0.00    +0.158 C 
ATOM     12  O   UNL     1      -6.250   1.605   0.678  0.00  0.00    -0.351 OA
ATOM     13  C   UNL     1      -3.378  -0.709  -1.034  0.00  0.00    +0.072 C 
ATOM     14  C   UNL     1      -4.985   1.808   1.169  0.00  0.00    +0.161 C 
BRANCH   6  15
ATOM     15  C   UNL     1      -4.541  -0.487   1.841  0.00  0.00    +0.201 C 
ATOM     16  O   UNL     1      -4.473   0.055   3.140  0.00  0.00    -0.219 OA
ENDBRANCH   6  15
ENDBRANCH   5   6
ENDBRANCH   3   5
BRANCH   4  17
ATOM     17  C   UNL     1       1.829  -0.947   1.778  0.00  0.00    +0.118 C 
BRANCH  17  18
ATOM     18  C   UNL     1       2.822  -0.110   0.894  0.00  0.00    +0.038 C 
ATOM     19  C   UNL     1       2.040  -0.324  -0.507  0.00  0.00    +0.074 C 
ATOM     20  N   UNL     1       2.587   0.537  -1.471  0.00  0.00    -0.269 NA
ATOM     21  C   UNL     1       2.953   1.845  -1.143  0.00  0.00    +0.072 C 
ATOM     22  C   UNL     1       3.092   2.225   0.279  0.00  0.00    +0.017 C 
ATOM     23  C   UNL     1       2.265   1.358   1.161  0.00  0.00    +0.005 C 
BRANCH  20  24
ATOM     24  C   UNL     1       3.479  -0.042  -2.433  0.00  0.00    +0.099 C 
BRANCH  24  25
ATOM     25  C   UNL     1       4.866  -0.059  -1.877  0.00  0.00    -0.006 A 
ATOM     26  C   UNL     1       5.912  -0.624  -2.612  0.00  0.00    -0.003 A 
ATOM     27  C   UNL     1       7.177  -0.621  -2.067  0.00  0.00    -0.000 A 
ATOM     28  C   UNL     1       7.475  -0.090  -0.834  0.00  0.00    -0.000 A 
ATOM     29  C   UNL     1       6.426   0.463  -0.126  0.00  0.00    -0.000 A 
ATOM     30  C   UNL     1       5.176   0.464  -0.656  0.00  0.00    -0.003 A 
ENDBRANCH  24  25
ENDBRANCH  20  24
ENDBRANCH  17  18
ENDBRANCH   4  17
TORSDOF 7
