REMARK  Name = 
REMARK  6 active torsions:
REMARK  status: ('A' for Active; 'I' for Inactive)
REMARK    1  A    between atoms: C_2  and  O_5
REMARK    2  A    between atoms: O_5  and  C_6
REMARK    3  A    between atoms: N_19  and  C_20
REMARK    4  A    between atoms: C_20  and  C_21
REMARK    5  A    between atoms: N_25  and  C_26
REMARK    6  A    between atoms: C_26  and  C_27
REMARK                            x       y       z     vdW  Elec       q    Type
REMARK                         _______ _______ _______ _____ _____    ______ ____
ROOT
ATOM      1  C   UNL     1      -5.616   0.332   0.698  0.00  0.00    +0.405 C 
ATOM      2  N   UNL     1      -4.487  -0.328   1.213  0.00  0.00    -0.246 N 
ATOM      3  C   UNL     1      -3.102   0.213   0.854  0.00  0.00    +0.097 C 
ATOM      4  C   UNL     1      -3.212   0.063  -0.745  0.00  0.00    +0.023 C 
ATOM      5  C   UNL     1      -3.656  -1.295  -1.129  0.00  0.00    +0.023 C 
ATOM      6  C   UNL     1      -2.368  -2.141  -1.104  0.00  0.00    +0.095 C 
ATOM      7  N   UNL     1      -1.619  -1.632  -0.038  0.00  0.00    -0.263 N 
ATOM      8  C   UNL     1      -0.176  -1.511  -0.072  0.00  0.00    +0.323 C 
ATOM      9  N   UNL     1       0.514  -1.916  -1.211  0.00  0.00    -0.188 NA
ATOM     10  O   UNL     1       0.464  -1.054   0.895  0.00  0.00    -0.251 OA
ATOM     11  C   UNL     1      -2.185  -1.139   1.289  0.00  0.00    +0.097 C 
ATOM     12  C   UNL     1      -3.405  -2.189   1.380  0.00  0.00    +0.043 C 
ATOM     13  C   UNL     1      -4.479  -1.423   2.014  0.00  0.00    +0.098 C 
ATOM     14  O   UNL     1      -6.789  -0.077   0.964  0.00  0.00    -0.226 OA
ENDROOT
BRANCH   1  15
ATOM     15  O   UNL     1      -5.575   1.450  -0.118  0.00  0.00    -0.442 OA
BRANCH  15  17
ATOM     16  C   UNL     1      -7.496   1.042  -1.433  0.00  0.00    +0.044 C 
ATOM     17  C   UNL     1      -6.748   2.077  -0.610  0.00  0.00    +0.138 C 
ATOM     18  C   UNL     1      -6.263   3.201  -1.534  0.00  0.00    +0.044 C 
ATOM     19  C   UNL     1      -7.569   2.632   0.509  0.00  0.00    +0.044 C 
ENDBRANCH  15  17
ENDBRANCH   1  15
BRANCH   9  20
ATOM     20  C   UNL     1       1.858  -1.920  -1.534  0.00  0.00    +0.118 C 
BRANCH  20  21
ATOM     21  C   UNL     1       2.505  -0.451  -1.537  0.00  0.00    +0.038 C 
ATOM     22  C   UNL     1       2.870  -0.443   0.033  0.00  0.00    +0.074 C 
ATOM     23  N   UNL     1       4.158  -0.021   0.284  0.00  0.00    -0.269 NA
ATOM     24  C   UNL     1       5.054  -1.187   0.166  0.00  0.00    +0.072 C 
ATOM     25  C   UNL     1       4.430  -1.999  -0.982  0.00  0.00    +0.017 C 
ATOM     26  C   UNL     1       3.991  -0.996  -1.997  0.00  0.00    +0.005 C 
BRANCH  23  27
ATOM     27  C   UNL     1       4.704   1.021  -0.542  0.00  0.00    +0.099 C 
BRANCH  27  28
ATOM     28  C   UNL     1       6.068   1.316  -0.020  0.00  0.00    -0.006 A 
ATOM     29  C   UNL     1       6.616   0.657   1.062  0.00  0.00    -0.003 A 
ATOM     30  C   UNL     1       7.888   0.937   1.543  0.00  0.00    -0.000 A 
ATOM     31  C   UNL     1       8.637   1.904   0.927  0.00  0.00    -0.000 A 
ATOM     32  C   UNL     1       8.129   2.586  -0.156  0.00  0.00    -0.000 A 
ATOM     33  C   UNL     1       6.863   2.290  -0.616  0.00  0.00    -0.003 A 
ENDBRANCH  27  28
ENDBRANCH  23  27
ENDBRANCH  20  21
ENDBRANCH   9  20
TORSDOF 6
