REMARK  Name = 
REMARK  9 active torsions:
REMARK  status: ('A' for Active; 'I' for Inactive)
REMARK    1  A    between atoms: C_2  and  C_3
REMARK    2  A    between atoms: C_3  and  C_4
REMARK    3  A    between atoms: C_4  and  C_5
REMARK    4  A    between atoms: C_4  and  C_7
REMARK    5  A    between atoms: N_9  and  C_10
REMARK    6  A    between atoms: C_10  and  C_12
REMARK    7  A    between atoms: N_14  and  C_15
REMARK    8  A    between atoms: C_15  and  C_16
REMARK    9  A    between atoms: C_16  and  C_17
REMARK                            x       y       z     vdW  Elec       q    Type
REMARK                         _______ _______ _______ _____ _____    ______ ____
ROOT
ATOM      1  C   UNL     1      -0.159   0.749  -0.267  0.00  0.00    +0.052 C 
ATOM      2  C   UNL     1       0.908  -0.183   0.021  0.00  0.00    +0.075 C 
ATOM      3  N   UNL     1       1.831   0.853   0.200  0.00  0.00    -0.272 NA
ATOM      4  C   UNL     1       0.932   1.796  -0.281  0.00  0.00    +0.075 C 
ENDROOT
BRANCH   1   5
ATOM      5  C   UNL     1      -1.004   1.179   1.082  0.00  0.00    +0.098 C 
ATOM      6  C   UNL     1      -1.876   2.333   0.321  0.00  0.00    +0.024 C 
BRANCH   5   8
ATOM      7  C   UNL     1      -3.185   0.166   0.317  0.00  0.00    +0.241 C 
ATOM      8  N   UNL     1      -2.051   0.061   1.004  0.00  0.00    -0.207 NA
ATOM      9  O   UNL     1      -3.509   1.252  -0.364  0.00  0.00    -0.273 OA
BRANCH   7  10
ATOM     10  C   UNL     1      -4.333  -0.927   0.172  0.00  0.00    +0.078 C 
BRANCH  10  11
ATOM     11  C   UNL     1      -3.338  -2.077  -0.527  0.00  0.00    +0.009 C 
ATOM     12  C   UNL     1      -2.599  -2.660   0.655  0.00  0.00    +0.001 C 
ENDBRANCH  10  11
BRANCH  10  13
ATOM     13  C   UNL     1      -4.979  -0.478  -1.247  0.00  0.00    +0.009 C 
BRANCH  13  15
ATOM     14  C   UNL     1      -7.150   0.306  -0.190  0.00  0.00    +0.000 C 
ATOM     15  C   UNL     1      -5.962   0.589  -1.056  0.00  0.00    +0.000 C 
ENDBRANCH  13  15
ENDBRANCH  10  13
ENDBRANCH   7  10
ENDBRANCH   5   8
ENDBRANCH   1   5
BRANCH   3  16
ATOM     16  C   UNL     1       2.491   0.931   1.433  0.00  0.00    +0.077 C 
BRANCH  16  17
ATOM     17  C   UNL     1       3.281  -0.340   1.629  0.00  0.00    +0.044 C 
BRANCH  17  18
ATOM     18  C   UNL     1       4.237  -0.463   0.503  0.00  0.00    -0.021 A 
ATOM     19  C   UNL     1       3.834  -1.054  -0.667  0.00  0.00    -0.004 A 
ATOM     20  C   UNL     1       4.721  -1.173  -1.708  0.00  0.00    -0.000 A 
ATOM     21  C   UNL     1       5.987  -0.728  -1.632  0.00  0.00    -0.000 A 
ATOM     22  C   UNL     1       6.398  -0.129  -0.451  0.00  0.00    -0.000 A 
ATOM     23  C   UNL     1       5.526  -0.004   0.596  0.00  0.00    -0.004 A 
ENDBRANCH  17  18
ENDBRANCH  16  17
ENDBRANCH   3  16
TORSDOF 9
