REMARK  Name = 
REMARK  8 active torsions:
REMARK  status: ('A' for Active; 'I' for Inactive)
REMARK    1  A    between atoms: C_2  and  C_3
REMARK    2  A    between atoms: C_3  and  C_4
REMARK    3  A    between atoms: C_4  and  C_5
REMARK    4  A    between atoms: C_4  and  C_7
REMARK    5  A    between atoms: N_9  and  C_10
REMARK    6  A    between atoms: C_10  and  C_12
REMARK    7  A    between atoms: N_14  and  C_15
REMARK    8  A    between atoms: C_15  and  C_16
REMARK                            x       y       z     vdW  Elec       q    Type
REMARK                         _______ _______ _______ _____ _____    ______ ____
ROOT
ATOM      1  C   UNL     1      -0.631  -0.987  -1.542  0.00  0.00    +0.098 C 
ATOM      2  C   UNL     1      -0.476  -2.431  -2.345  0.00  0.00    +0.024 C 
ENDROOT
BRANCH   1   3
ATOM      3  C   UNL     1       0.048  -1.564  -0.172  0.00  0.00    +0.052 C 
ATOM      4  C   UNL     1       0.193  -0.253   0.632  0.00  0.00    +0.076 C 
ATOM      5  N   UNL     1       1.341  -0.029  -0.110  0.00  0.00    -0.266 NA
ATOM      6  C   UNL     1       1.570  -1.355  -0.381  0.00  0.00    +0.076 C 
BRANCH   5   7
ATOM      7  C   UNL     1       1.922   1.099  -0.571  0.00  0.00    +0.141 C 
BRANCH   7   8
ATOM      8  C   UNL     1       3.358   1.103  -0.244  0.00  0.00    +0.178 A 
ATOM      9  N   UNL     1       4.185   0.057  -0.186  0.00  0.00    -0.211 NA
ATOM     10  C   UNL     1       5.434   0.454   0.139  0.00  0.00    +0.163 A 
ATOM     11  C   UNL     1       6.660  -0.329   0.314  0.00  0.00    +0.076 C 
ATOM     12  N   UNL     1       5.350   1.797   0.282  0.00  0.00    -0.132 NA
ATOM     13  N   UNL     1       4.089   2.182   0.049  0.00  0.00    -0.130 NA
ENDBRANCH   7   8
ENDBRANCH   5   7
ENDBRANCH   1   3
BRANCH   1  15
ATOM     14  C   UNL     1      -2.692  -0.206  -0.476  0.00  0.00    +0.241 C 
ATOM     15  N   UNL     1      -2.085  -1.301  -1.102  0.00  0.00    -0.207 NA
ATOM     16  O   UNL     1      -2.102   0.863  -0.306  0.00  0.00    -0.273 OA
BRANCH  14  17
ATOM     17  C   UNL     1      -4.158  -0.299   0.029  0.00  0.00    +0.078 C 
BRANCH  17  18
ATOM     18  C   UNL     1      -3.882  -1.337   1.241  0.00  0.00    +0.009 C 
ATOM     19  C   UNL     1      -3.866  -2.677   0.489  0.00  0.00    +0.001 C 
ENDBRANCH  17  18
BRANCH  17  20
ATOM     20  C   UNL     1      -4.149   1.017   0.954  0.00  0.00    +0.009 C 
BRANCH  20  22
ATOM     21  C   UNL     1      -5.726   2.009  -0.629  0.00  0.00    +0.000 C 
ATOM     22  C   UNL     1      -4.384   2.188   0.055  0.00  0.00    +0.000 C 
ENDBRANCH  20  22
ENDBRANCH  17  20
ENDBRANCH  14  17
ENDBRANCH   1  15
TORSDOF 8
