REMARK  Name = 
REMARK  5 active torsions:
REMARK  status: ('A' for Active; 'I' for Inactive)
REMARK    1  A    between atoms: N_5  and  C_6
REMARK    2  A    between atoms: C_6  and  C_8
REMARK    3  A    between atoms: C_8  and  N_9
REMARK    4  A    between atoms: N_12  and  C_13
REMARK    5  A    between atoms: C_13  and  C_14
REMARK                            x       y       z     vdW  Elec       q    Type
REMARK                         _______ _______ _______ _____ _____    ______ ____
ROOT
ATOM      1  N   UNL     1      -0.833   0.028   0.398  0.00  0.00    -0.186 NA
ATOM      2  C   UNL     1       0.195  -0.792  -0.222  0.00  0.00    +0.339 C 
ATOM      3  N   UNL     1       1.490  -0.869   0.306  0.00  0.00    -0.185 NA
ATOM      4  O   UNL     1      -0.075  -1.450  -1.256  0.00  0.00    -0.249 OA
ENDROOT
BRANCH   1   5
ATOM      5  C   UNL     1      -2.158   0.059  -0.212  0.00  0.00    +0.133 C 
BRANCH   5   6
ATOM      6  C   UNL     1      -2.916   1.073   0.809  0.00  0.00    +0.079 C 
ATOM      7  C   UNL     1      -3.322  -0.100   1.861  0.00  0.00    +0.019 C 
BRANCH   6  12
ATOM      8  C   UNL     1      -7.218  -0.732   2.295  0.00  0.00    +0.000 C 
ATOM      9  C   UNL     1      -6.713  -0.482   0.861  0.00  0.00    +0.003 C 
ATOM     10  C   UNL     1      -5.261  -0.988   0.825  0.00  0.00    +0.017 C 
ATOM     11  C   UNL     1      -4.530  -0.348  -0.317  0.00  0.00    +0.072 C 
ATOM     12  N   UNL     1      -4.273   1.017   0.057  0.00  0.00    -0.272 NA
ATOM     13  C   UNL     1      -5.204   1.406   1.092  0.00  0.00    +0.072 C 
ATOM     14  C   UNL     1      -6.618   1.044   0.700  0.00  0.00    +0.017 C 
ENDBRANCH   6  12
ENDBRANCH   5   6
ENDBRANCH   1   5
BRANCH   3  15
ATOM     15  C   UNL     1       2.632  -1.573  -0.128  0.00  0.00    +0.147 C 
BRANCH  15  16
ATOM     16  C   UNL     1       3.101  -1.134  -1.471  0.00  0.00    +0.147 C 
ATOM     17  C   UNL     1       3.379   0.376  -1.379  0.00  0.00    +0.032 C 
ATOM     18  C   UNL     1       4.029   0.614  -0.041  0.00  0.00    +0.003 C 
ATOM     19  C   UNL     1       5.303  -0.147   0.134  0.00  0.00    +0.000 C 
ATOM     20  C   UNL     1       6.199  -0.114  -1.079  0.00  0.00    +0.000 C 
ATOM     21  C   UNL     1       6.074   0.503   1.275  0.00  0.00    +0.000 C 
ATOM     22  C   UNL     1       5.091  -1.597   0.518  0.00  0.00    +0.000 C 
ATOM     23  C   UNL     1       5.092  -2.477  -0.716  0.00  0.00    +0.003 C 
ATOM     24  C   UNL     1       4.406  -1.798  -1.882  0.00  0.00    +0.032 C 
ATOM     25  O   UNL     1       2.130  -1.352  -2.426  0.00  0.00    -0.224 OA
ENDBRANCH  15  16
ENDBRANCH   3  15
TORSDOF 5
