REMARK  Name = 
REMARK  9 active torsions:
REMARK  status: ('A' for Active; 'I' for Inactive)
REMARK    1  A    between atoms: C_2  and  C_3
REMARK    2  A    between atoms: C_3  and  C_4
REMARK    3  A    between atoms: C_4  and  C_5
REMARK    4  A    between atoms: C_4  and  C_7
REMARK    5  A    between atoms: N_9  and  C_10
REMARK    6  A    between atoms: C_10  and  C_12
REMARK    7  A    between atoms: N_14  and  C_15
REMARK    8  A    between atoms: C_15  and  C_16
REMARK    9  A    between atoms: C_18  and  C_19
REMARK                            x       y       z     vdW  Elec       q    Type
REMARK                         _______ _______ _______ _____ _____    ______ ____
ROOT
ATOM      1  C   UNL     1      -0.149  -0.558  -0.298  0.00  0.00    +0.052 C 
ATOM      2  C   UNL     1      -0.483   0.430  -0.606  0.00  0.00    +0.076 C 
ATOM      3  N   UNL     1      -0.820   1.390  -0.918  0.00  0.00    -0.266 NA
ATOM      4  C   UNL     1      -0.089   0.285  -1.534  0.00  0.00    +0.076 C 
ENDROOT
BRANCH   1   5
ATOM      5  C   UNL     1       0.848  -0.259   0.899  0.00  0.00    +0.098 C 
ATOM      6  C   UNL     1       0.982   1.351   0.936  0.00  0.00    +0.024 C 
BRANCH   5   8
ATOM      7  C   UNL     1       3.216  -0.094   0.762  0.00  0.00    +0.241 C 
ATOM      8  N   UNL     1       2.110  -0.498   0.038  0.00  0.00    -0.207 NA
ATOM      9  O   UNL     1       3.154   0.367   1.886  0.00  0.00    -0.273 OA
BRANCH   7  10
ATOM     10  C   UNL     1       4.555  -0.304  -0.042  0.00  0.00    +0.078 C 
BRANCH  10  11
ATOM     11  C   UNL     1       4.717  -1.888   0.348  0.00  0.00    +0.009 C 
ATOM     12  C   UNL     1       4.260  -2.178   1.686  0.00  0.00    +0.001 C 
ENDBRANCH  10  11
BRANCH  10  13
ATOM     13  C   UNL     1       5.497   0.285   1.124  0.00  0.00    +0.009 C 
BRANCH  13  15
ATOM     14  C   UNL     1       7.305   0.233  -0.234  0.00  0.00    +0.000 C 
ATOM     15  C   UNL     1       6.862  -0.211   1.051  0.00  0.00    +0.000 C 
ENDBRANCH  13  15
ENDBRANCH  10  13
ENDBRANCH   7  10
ENDBRANCH   5   8
ENDBRANCH   1   5
BRANCH   3  16
ATOM     16  C   UNL     1      -1.897   1.175   0.026  0.00  0.00    +0.141 C 
BRANCH  16  17
ATOM     17  C   UNL     1      -2.931   0.407  -0.654  0.00  0.00    +0.178 A 
ATOM     18  N   UNL     1      -3.022  -0.530  -1.582  0.00  0.00    -0.130 NA
ATOM     19  N   UNL     1      -4.304  -0.826  -1.754  0.00  0.00    -0.132 NA
ATOM     20  C   UNL     1      -5.059  -0.082  -0.939  0.00  0.00    +0.162 A 
ATOM     21  N   UNL     1      -4.191   0.677  -0.265  0.00  0.00    -0.211 NA
BRANCH  20  22
ATOM     22  C   UNL     1      -6.522  -0.027  -0.744  0.00  0.00    +0.061 C 
ATOM     23  C   UNL     1      -7.065   1.067   0.107  0.00  0.00    +0.008 C 
ATOM     24  C   UNL     1      -6.972  -0.269   0.706  0.00  0.00    +0.008 C 
ENDBRANCH  20  22
ENDBRANCH  16  17
ENDBRANCH   3  16
TORSDOF 9
