REMARK  Name = 
REMARK  6 active torsions:
REMARK  status: ('A' for Active; 'I' for Inactive)
REMARK    1  A    between atoms: C_6  and  C_7
REMARK    2  A    between atoms: C_7  and  N_8
REMARK    3  A    between atoms: C_10  and  C_11
REMARK    4  A    between atoms: C_11  and  N_13
REMARK    5  A    between atoms: C_14  and  C_16
REMARK    6  A    between atoms: C_16  and  C_18
REMARK                            x       y       z     vdW  Elec       q    Type
REMARK                         _______ _______ _______ _____ _____    ______ ____
ROOT
ATOM      1  C   UNL     1      -0.035   0.212  -1.167  0.00  0.00    +0.098 C 
ATOM      2  C   UNL     1       0.331   1.407  -2.343  0.00  0.00    +0.024 C 
ENDROOT
BRANCH   1   5
ATOM      3  N   UNL     1      -2.126  -0.351  -0.458  0.00  0.00    -0.269 NA
ATOM      4  C   UNL     1      -2.348   1.002  -0.965  0.00  0.00    +0.075 C 
ATOM      5  C   UNL     1      -1.018   1.257  -0.366  0.00  0.00    +0.052 C 
ATOM      6  C   UNL     1      -1.595   0.291   0.707  0.00  0.00    +0.075 C 
BRANCH   3   7
ATOM      7  C   UNL     1      -3.273  -1.154  -0.384  0.00  0.00    +0.104 C 
BRANCH   7  10
ATOM      8  C   UNL     1      -6.058  -2.449  -0.148  0.00  0.00    +0.055 C 
ATOM      9  C   UNL     1      -5.708  -1.028   0.202  0.00  0.00    +0.098 A 
ATOM     10  C   UNL     1      -4.471  -0.451   0.083  0.00  0.00    +0.051 A 
ATOM     11  C   UNL     1      -4.571   0.877   0.496  0.00  0.00    +0.210 A 
ATOM     12  O   UNL     1      -5.830   1.054   0.842  0.00  0.00    -0.351 OA
ATOM     13  N   UNL     1      -6.522  -0.054   0.677  0.00  0.00    -0.082 NA
ENDBRANCH   7  10
ENDBRANCH   3   7
ENDBRANCH   1   5
BRANCH   1  14
ATOM     14  N   UNL     1       1.273   0.555  -0.471  0.00  0.00    -0.207 NA
ATOM     15  C   UNL     1       1.736   0.301   0.735  0.00  0.00    +0.245 C 
ATOM     16  O   UNL     1       1.160  -0.324   1.631  0.00  0.00    -0.273 OA
BRANCH  15  17
ATOM     17  C   UNL     1       3.208   0.813   1.222  0.00  0.00    +0.103 C 
ATOM     18  C   UNL     1       3.093   2.122   0.128  0.00  0.00    +0.014 C 
BRANCH  17  19
ATOM     19  C   UNL     1       4.094  -0.036   0.254  0.00  0.00    +0.017 A 
ATOM     20  C   UNL     1       3.733  -1.124  -0.489  0.00  0.00    +0.079 A 
ATOM     21  C   UNL     1       2.421  -1.774  -0.663  0.00  0.00    +0.054 C 
ATOM     22  N   UNL     1       4.905  -1.625  -1.070  0.00  0.00    -0.153 NA
ATOM     23  N   UNL     1       5.909  -0.865  -0.674  0.00  0.00    -0.153 NA
ATOM     24  C   UNL     1       5.472   0.111   0.124  0.00  0.00    +0.079 A 
ATOM     25  C   UNL     1       6.220   1.233   0.792  0.00  0.00    +0.054 C 
ENDBRANCH  17  19
ENDBRANCH  15  17
ENDBRANCH   1  14
TORSDOF 6
