REMARK  Name = 
REMARK  7 active torsions:
REMARK  status: ('A' for Active; 'I' for Inactive)
REMARK    1  A    between atoms: C_2  and  C_3
REMARK    2  A    between atoms: C_3  and  N_4
REMARK    3  A    between atoms: C_7  and  N_8
REMARK    4  A    between atoms: C_10  and  C_11
REMARK    5  A    between atoms: C_11  and  N_13
REMARK    6  A    between atoms: C_14  and  C_16
REMARK    7  A    between atoms: C_16  and  C_17
REMARK                            x       y       z     vdW  Elec       q    Type
REMARK                         _______ _______ _______ _____ _____    ______ ____
ROOT
ATOM      1  N   UNL     1       1.806  -0.160   0.350  0.00  0.00    -0.266 NA
ATOM      2  C   UNL     1       1.065   0.862  -0.363  0.00  0.00    +0.076 C 
ATOM      3  C   UNL     1      -0.193   0.147   0.013  0.00  0.00    +0.052 C 
ATOM      4  C   UNL     1       0.639  -0.339   1.171  0.00  0.00    +0.076 C 
ENDROOT
BRANCH   1   8
ATOM      5  N   UNL     1       4.855  -0.114   0.093  0.00  0.00    -0.274 N 
ATOM      6  C   UNL     1       4.006  -0.341   1.138  0.00  0.00    +0.240 C 
ATOM      7  O   UNL     1       4.008  -1.225   2.001  0.00  0.00    -0.273 OA
ATOM      8  C   UNL     1       2.848   0.748   1.197  0.00  0.00    +0.137 C 
ATOM      9  C   UNL     1       3.349   1.537  -0.215  0.00  0.00    +0.047 C 
ATOM     10  C   UNL     1       3.985   0.425  -0.938  0.00  0.00    +0.096 C 
BRANCH   5  11
ATOM     11  C   UNL     1       6.297  -0.319  -0.033  0.00  0.00    +0.120 C 
BRANCH  11  13
ATOM     12  C   UNL     1       6.234   2.029   0.784  0.00  0.00    -0.003 C 
ATOM     13  C   UNL     1       6.954   0.971   0.396  0.00  0.00    -0.005 C 
ENDBRANCH  11  13
ENDBRANCH   5  11
ENDBRANCH   1   8
BRANCH   3  14
ATOM     14  C   UNL     1      -0.221  -1.155  -1.008  0.00  0.00    +0.098 C 
ATOM     15  C   UNL     1      -0.957  -2.134   0.106  0.00  0.00    +0.024 C 
BRANCH  14  16
ATOM     16  N   UNL     1      -1.503  -0.650  -1.768  0.00  0.00    -0.207 NA
ATOM     17  C   UNL     1      -2.717  -0.578  -1.149  0.00  0.00    +0.248 C 
ATOM     18  O   UNL     1      -2.773  -0.942   0.034  0.00  0.00    -0.273 OA
BRANCH  17  19
ATOM     19  C   UNL     1      -3.912  -0.088  -1.843  0.00  0.00    +0.137 C 
BRANCH  19  20
ATOM     20  C   UNL     1      -5.042  -0.132  -0.863  0.00  0.00    +0.126 A 
ATOM     21  C   UNL     1      -5.207   0.771   0.173  0.00  0.00    +0.118 A 
ATOM     22  C   UNL     1      -4.343   1.902   0.516  0.00  0.00    +0.057 C 
ATOM     23  N   UNL     1      -6.327   0.406   0.808  0.00  0.00    -0.053 NA
ATOM     24  O   UNL     1      -6.798  -0.629   0.206  0.00  0.00    -0.242 OA
ATOM     25  N   UNL     1      -6.056  -0.991  -0.807  0.00  0.00    -0.053 NA
ENDBRANCH  19  20
ENDBRANCH  17  19
ENDBRANCH  14  16
ENDBRANCH   3  14
TORSDOF 7
