REMARK  Name = 
REMARK  9 active torsions:
REMARK  status: ('A' for Active; 'I' for Inactive)
REMARK    1  A    between atoms: C_2  and  C_4
REMARK    2  A    between atoms: C_4  and  C_5
REMARK    3  A    between atoms: C_5  and  C_6
REMARK    4  A    between atoms: C_6  and  N_7
REMARK    5  A    between atoms: C_9  and  C_10
REMARK    6  A    between atoms: C_10  and  N_12
REMARK    7  A    between atoms: C_13  and  C_15
REMARK    8  A    between atoms: C_15  and  C_16
REMARK    9  A    between atoms: C_16  and  C_17
REMARK                            x       y       z     vdW  Elec       q    Type
REMARK                         _______ _______ _______ _____ _____    ______ ____
ROOT
ATOM      1  C   UNL     1       0.387  -1.968  -0.776  0.00  0.00    +0.098 C 
ATOM      2  C   UNL     1       1.332  -2.230   0.538  0.00  0.00    +0.024 C 
ENDROOT
BRANCH   1   5
ATOM      3  N   UNL     1      -2.293  -1.551   0.410  0.00  0.00    -0.272 NA
ATOM      4  C   UNL     1      -1.788  -0.723  -0.647  0.00  0.00    +0.075 C 
ATOM      5  C   UNL     1      -0.397  -0.697  -0.108  0.00  0.00    +0.052 C 
ATOM      6  C   UNL     1      -1.048  -1.284   1.142  0.00  0.00    +0.075 C 
BRANCH   3   7
ATOM      7  C   UNL     1      -3.386  -0.965   1.143  0.00  0.00    +0.072 C 
BRANCH   7   8
ATOM      8  C   UNL     1      -3.339   0.527   1.119  0.00  0.00    +0.017 C 
BRANCH   8   9
ATOM      9  C   UNL     1      -3.466   1.136  -0.254  0.00  0.00    +0.001 C 
BRANCH   9  11
ATOM     10  C   UNL     1      -5.078  -0.618  -1.122  0.00  0.00    +0.000 C 
ATOM     11  C   UNL     1      -4.779   0.828  -0.915  0.00  0.00    +0.000 C 
ATOM     12  C   UNL     1      -5.946   1.461  -0.159  0.00  0.00    +0.000 C 
ENDBRANCH   9  11
ENDBRANCH   8   9
ENDBRANCH   7   8
ENDBRANCH   3   7
ENDBRANCH   1   5
BRANCH   1  13
ATOM     13  N   UNL     1       1.435  -1.128  -1.541  0.00  0.00    -0.207 NA
ATOM     14  C   UNL     1       2.037  -0.087  -0.818  0.00  0.00    +0.241 C 
ATOM     15  O   UNL     1       1.699   0.098   0.362  0.00  0.00    -0.273 OA
BRANCH  14  16
ATOM     16  C   UNL     1       3.066   0.768  -1.480  0.00  0.00    +0.087 C 
BRANCH  16  17
ATOM     17  C   UNL     1       3.593   1.775  -0.542  0.00  0.00    +0.010 C 
BRANCH  17  18
ATOM     18  C   UNL     1       4.246   1.145   0.642  0.00  0.00    +0.000 C 
ATOM     19  C   UNL     1       4.697   2.183   1.731  0.00  0.00    +0.000 C 
ATOM     20  C   UNL     1       3.602   1.122   1.948  0.00  0.00    +0.000 C 
ATOM     21  C   UNL     1       5.427   0.207   0.377  0.00  0.00    +0.000 C 
ENDBRANCH  17  18
ENDBRANCH  16  17
ENDBRANCH  14  16
ENDBRANCH   1  13
TORSDOF 9
