REMARK  Name = 
REMARK  8 active torsions:
REMARK  status: ('A' for Active; 'I' for Inactive)
REMARK    1  A    between atoms: C_2  and  O_3
REMARK    2  A    between atoms: O_3  and  C_4
REMARK    3  A    between atoms: C_4  and  C_6
REMARK    4  A    between atoms: C_6  and  C_7
REMARK    5  A    between atoms: C_7  and  N_8
REMARK    6  A    between atoms: N_11  and  C_12
REMARK    7  A    between atoms: C_12  and  C_13
REMARK    8  A    between atoms: C_13  and  N_15
REMARK                            x       y       z     vdW  Elec       q    Type
REMARK                         _______ _______ _______ _____ _____    ______ ____
ROOT
ATOM      1  N   UNL     1      -1.113  -0.265  -0.026  0.00  0.00    -0.187 NA
ATOM      2  C   UNL     1       0.072  -0.874  -0.531  0.00  0.00    +0.339 C 
ATOM      3  N   UNL     1       1.156  -1.102   0.345  0.00  0.00    -0.186 NA
ATOM      4  O   UNL     1       0.199  -1.216  -1.717  0.00  0.00    -0.249 OA
ENDROOT
BRANCH   1   5
ATOM      5  C   UNL     1      -2.203  -0.052  -0.951  0.00  0.00    +0.130 C 
BRANCH   5   6
ATOM      6  C   UNL     1      -3.334   0.608  -0.171  0.00  0.00    +0.137 C 
ATOM      7  C   UNL     1      -2.837   1.908   0.360  0.00  0.00    +0.154 C 
ATOM      8  O   UNL     1      -3.183   2.913  -0.542  0.00  0.00    -0.353 OA
ATOM      9  C   UNL     1      -4.553   3.180  -0.467  0.00  0.00    +0.142 C 
ATOM     10  C   UNL     1      -5.352   1.959  -0.829  0.00  0.00    +0.033 C 
ATOM     11  C   UNL     1      -4.455   0.802  -1.196  0.00  0.00    +0.017 C 
BRANCH   6  12
ATOM     12  C   UNL     1      -3.782  -0.246   0.945  0.00  0.00    +0.320 C 
ATOM     13  O   UNL     1      -3.709   0.181   2.146  0.00  0.00    -0.250 OA
BRANCH  12  14
ATOM     14  O   UNL     1      -4.280  -1.506   0.679  0.00  0.00    -0.448 OA
BRANCH  14  16
ATOM     15  C   UNL     1      -5.194  -3.591   1.309  0.00  0.00    +0.051 C 
ATOM     16  C   UNL     1      -4.693  -2.272   1.811  0.00  0.00    +0.209 C 
ENDBRANCH  14  16
ENDBRANCH  12  14
ENDBRANCH   6  12
ENDBRANCH   5   6
ENDBRANCH   1   5
BRANCH   3  17
ATOM     17  C   UNL     1       2.404  -1.691   0.012  0.00  0.00    +0.133 C 
BRANCH  17  18
ATOM     18  C   UNL     1       3.063  -0.693  -1.155  0.00  0.00    +0.079 C 
ATOM     19  C   UNL     1       3.079   0.640  -0.152  0.00  0.00    +0.019 C 
BRANCH  18  20
ATOM     20  N   UNL     1       4.552  -1.099  -0.779  0.00  0.00    -0.272 NA
ATOM     21  C   UNL     1       4.690  -1.006   0.621  0.00  0.00    +0.072 C 
ATOM     22  C   UNL     1       5.071   0.328   1.154  0.00  0.00    +0.017 C 
ATOM     23  C   UNL     1       6.308   0.887   0.529  0.00  0.00    +0.003 C 
ATOM     24  C   UNL     1       6.048   2.328   0.146  0.00  0.00    +0.000 C 
ATOM     25  C   UNL     1       6.641   0.080  -0.694  0.00  0.00    +0.017 C 
ATOM     26  C   UNL     1       5.407  -0.204  -1.494  0.00  0.00    +0.072 C 
ENDBRANCH  18  20
ENDBRANCH  17  18
ENDBRANCH   3  17
TORSDOF 8
