REMARK  Name = 
REMARK  6 active torsions:
REMARK  status: ('A' for Active; 'I' for Inactive)
REMARK    1  A    between atoms: C_2  and  C_3
REMARK    2  A    between atoms: C_3  and  N_4
REMARK    3  A    between atoms: N_4  and  C_18
REMARK    4  A    between atoms: N_7  and  C_8
REMARK    5  A    between atoms: C_8  and  C_9
REMARK    6  A    between atoms: C_9  and  N_11
REMARK                            x       y       z     vdW  Elec       q    Type
REMARK                         _______ _______ _______ _____ _____    ______ ____
ROOT
ATOM      1  N   UNL     1      -1.211   0.278  -0.335  0.00  0.00    -0.249 N 
ATOM      2  C   UNL     1      -0.021  -0.206   0.269  0.00  0.00    +0.324 C 
ATOM      3  N   UNL     1       0.917  -1.012  -0.461  0.00  0.00    -0.187 NA
ATOM      4  O   UNL     1       0.301   0.028   1.462  0.00  0.00    -0.251 OA
ENDROOT
BRANCH   1   5
ATOM      5  C   UNL     1      -2.072   1.129   0.633  0.00  0.00    +0.100 C 
ATOM      6  C   UNL     1      -3.459   1.043  -0.101  0.00  0.00    -0.008 A 
ATOM      7  C   UNL     1      -4.593   0.570   0.361  0.00  0.00    -0.025 A 
ATOM      8  C   UNL     1      -5.784   0.565  -0.415  0.00  0.00    -0.005 A 
ATOM      9  C   UNL     1      -5.763   1.061  -1.681  0.00  0.00    -0.000 A 
ATOM     10  C   UNL     1      -4.586   1.564  -2.192  0.00  0.00    -0.000 A 
ATOM     11  C   UNL     1      -4.789   0.001   1.696  0.00  0.00    +0.026 C 
ATOM     12  C   UNL     1      -3.559   0.269   2.494  0.00  0.00    +0.007 C 
ATOM     13  C   UNL     1      -3.442   1.557  -1.412  0.00  0.00    -0.003 A 
ATOM     14  C   UNL     1      -2.323  -0.050   1.743  0.00  0.00    +0.025 C 
ENDBRANCH   1   5
BRANCH   1  15
ATOM     15  C   UNL     1      -1.643   0.063  -1.656  0.00  0.00    +0.173 C 
BRANCH  15  17
ATOM     16  C   UNL     1      -3.133  -2.129  -1.874  0.00  0.00    -0.012 C 
ATOM     17  C   UNL     1      -2.460  -1.133  -1.775  0.00  0.00    -0.056 C 
ENDBRANCH  15  17
ENDBRANCH   1  15
BRANCH   3  18
ATOM     18  C   UNL     1       2.127  -1.495   0.171  0.00  0.00    +0.133 C 
BRANCH  18  19
ATOM     19  C   UNL     1       2.849  -0.079   0.584  0.00  0.00    +0.079 C 
ATOM     20  C   UNL     1       2.932   0.457  -0.958  0.00  0.00    +0.019 C 
BRANCH  19  21
ATOM     21  N   UNL     1       4.287  -0.685   0.607  0.00  0.00    -0.272 NA
ATOM     22  C   UNL     1       5.144   0.454   0.877  0.00  0.00    +0.072 C 
ATOM     23  C   UNL     1       6.576   0.188   0.444  0.00  0.00    +0.017 C 
ATOM     24  C   UNL     1       6.649   0.059  -1.086  0.00  0.00    +0.003 C 
ATOM     25  C   UNL     1       7.255  -1.303  -1.359  0.00  0.00    +0.000 C 
ATOM     26  C   UNL     1       5.181  -0.025  -1.509  0.00  0.00    +0.017 C 
ATOM     27  C   UNL     1       4.619  -1.167  -0.691  0.00  0.00    +0.072 C 
ENDBRANCH  19  21
ENDBRANCH  18  19
ENDBRANCH   3  18
TORSDOF 6
