REMARK  Name = 
REMARK  9 active torsions:
REMARK  status: ('A' for Active; 'I' for Inactive)
REMARK    1  A    between atoms: C_2  and  C_3
REMARK    2  A    between atoms: C_3  and  O_4
REMARK    3  A    between atoms: O_4  and  C_5
REMARK    4  A    between atoms: C_5  and  C_6
REMARK    5  A    between atoms: C_6  and  N_7
REMARK    6  A    between atoms: C_9  and  C_10
REMARK    7  A    between atoms: C_10  and  N_12
REMARK    8  A    between atoms: C_13  and  C_15
REMARK    9  A    between atoms: C_15  and  N_16
REMARK                            x       y       z     vdW  Elec       q    Type
REMARK                         _______ _______ _______ _____ _____    ______ ____
ROOT
ATOM      1  C   UNL     1       0.410  -0.718  -1.839  0.00  0.00    +0.098 C 
ATOM      2  C   UNL     1       0.956  -2.000  -0.992  0.00  0.00    +0.024 C 
ENDROOT
BRANCH   1   5
ATOM      3  N   UNL     1       2.936   0.056   0.036  0.00  0.00    -0.270 NA
ATOM      4  C   UNL     1       1.509   0.329   0.263  0.00  0.00    +0.075 C 
ATOM      5  C   UNL     1       1.296   0.453  -1.158  0.00  0.00    +0.052 C 
ATOM      6  C   UNL     1       2.772   0.092  -1.384  0.00  0.00    +0.075 C 
BRANCH   3   7
ATOM      7  C   UNL     1       3.255  -1.289   0.531  0.00  0.00    +0.105 C 
BRANCH   7   8
ATOM      8  C   UNL     1       4.601  -1.770   0.128  0.00  0.00    +0.160 C 
BRANCH   8   9
ATOM      9  O   UNL     1       5.625  -0.988   0.574  0.00  0.00    -0.348 OA
BRANCH   9  10
ATOM     10  C   UNL     1       5.452   0.278   0.040  0.00  0.00    +0.168 C 
BRANCH  10  12
ATOM     11  C   UNL     1       7.435   1.631  -0.316  0.00  0.00    -0.002 C 
ATOM     12  C   UNL     1       6.606   1.098   0.556  0.00  0.00    +0.006 C 
ENDBRANCH  10  12
ENDBRANCH   9  10
ENDBRANCH   8   9
ENDBRANCH   7   8
ENDBRANCH   3   7
ENDBRANCH   1   5
BRANCH   1  13
ATOM     13  N   UNL     1      -0.892  -0.398  -1.066  0.00  0.00    -0.206 NA
ATOM     14  C   UNL     1      -1.188  -0.896   0.172  0.00  0.00    +0.262 C 
ATOM     15  O   UNL     1      -0.312  -1.663   0.671  0.00  0.00    -0.271 OA
BRANCH  14  16
ATOM     16  C   UNL     1      -2.354  -0.693   1.026  0.00  0.00    +0.182 C 
BRANCH  16  17
ATOM     17  N   UNL     1      -3.381   0.137   0.536  0.00  0.00    -0.253 N 
ATOM     18  C   UNL     1      -4.471  -0.387  -0.223  0.00  0.00    +0.330 C 
ATOM     19  O   UNL     1      -4.301  -1.513  -0.715  0.00  0.00    -0.250 OA
ATOM     20  N   UNL     1      -5.635   0.394  -0.360  0.00  0.00    -0.127 NA
ATOM     21  C   UNL     1      -5.692   1.680   0.260  0.00  0.00    +0.251 C 
ATOM     22  O   UNL     1      -6.679   2.451   0.002  0.00  0.00    -0.273 OA
ATOM     23  C   UNL     1      -4.644   2.156   1.194  0.00  0.00    +0.109 C 
ATOM     24  C   UNL     1      -3.305   1.556   0.827  0.00  0.00    +0.105 C 
ENDBRANCH  16  17
ENDBRANCH  14  16
ENDBRANCH   1  13
TORSDOF 9
