REMARK  Name = 
REMARK  8 active torsions:
REMARK  status: ('A' for Active; 'I' for Inactive)
REMARK    1  A    between atoms: C_2  and  C_3
REMARK    2  A    between atoms: C_3  and  C_4
REMARK    3  A    between atoms: C_4  and  C_5
REMARK    4  A    between atoms: C_4  and  C_7
REMARK    5  A    between atoms: N_9  and  C_10
REMARK    6  A    between atoms: C_10  and  C_12
REMARK    7  A    between atoms: N_14  and  C_15
REMARK    8  A    between atoms: C_15  and  C_16
REMARK                            x       y       z     vdW  Elec       q    Type
REMARK                         _______ _______ _______ _____ _____    ______ ____
ROOT
ATOM      1  C   UNL     1      -0.413  -2.767   0.453  0.00  0.00    +0.098 C 
ATOM      2  C   UNL     1       0.016  -3.460  -0.989  0.00  0.00    +0.024 C 
ENDROOT
BRANCH   1   3
ATOM      3  C   UNL     1       0.379  -1.356   0.192  0.00  0.00    +0.052 C 
ATOM      4  C   UNL     1       1.827  -1.638  -0.080  0.00  0.00    +0.076 C 
ATOM      5  N   UNL     1       1.735  -0.547  -1.070  0.00  0.00    -0.266 NA
ATOM      6  C   UNL     1       0.355  -0.972  -1.238  0.00  0.00    +0.076 C 
BRANCH   5   7
ATOM      7  C   UNL     1       1.669   0.760  -0.391  0.00  0.00    +0.141 C 
BRANCH   7   8
ATOM      8  C   UNL     1       3.039   1.295  -0.175  0.00  0.00    +0.178 A 
ATOM      9  N   UNL     1       3.382   2.545   0.108  0.00  0.00    -0.211 NA
ATOM     10  C   UNL     1       4.726   2.569   0.205  0.00  0.00    +0.163 A 
ATOM     11  C   UNL     1       5.578   3.738   0.500  0.00  0.00    +0.076 C 
ATOM     12  N   UNL     1       5.188   1.329  -0.021  0.00  0.00    -0.132 NA
ATOM     13  N   UNL     1       4.144   0.555  -0.253  0.00  0.00    -0.130 NA
ENDBRANCH   7   8
ENDBRANCH   5   7
ENDBRANCH   1   3
BRANCH   1  15
ATOM     14  C   UNL     1      -2.186  -0.962   0.088  0.00  0.00    +0.241 C 
ATOM     15  N   UNL     1      -1.811  -2.290  -0.081  0.00  0.00    -0.207 NA
ATOM     16  O   UNL     1      -1.486  -0.144   0.634  0.00  0.00    -0.273 OA
BRANCH  14  17
ATOM     17  C   UNL     1      -3.624  -0.638  -0.508  0.00  0.00    +0.078 C 
BRANCH  17  18
ATOM     18  C   UNL     1      -4.415  -0.925   0.940  0.00  0.00    +0.009 C 
ATOM     19  C   UNL     1      -4.568  -2.426   0.875  0.00  0.00    +0.001 C 
ENDBRANCH  17  18
BRANCH  17  20
ATOM     20  C   UNL     1      -3.559   0.989  -0.256  0.00  0.00    +0.009 C 
BRANCH  20  22
ATOM     21  C   UNL     1      -4.977   2.917   0.083  0.00  0.00    +0.000 C 
ATOM     22  C   UNL     1      -4.998   1.427  -0.147  0.00  0.00    +0.000 C 
ENDBRANCH  20  22
ENDBRANCH  17  20
ENDBRANCH  14  17
ENDBRANCH   1  15
TORSDOF 8
