REMARK  Name = 
REMARK  7 active torsions:
REMARK  status: ('A' for Active; 'I' for Inactive)
REMARK    1  A    between atoms: C_2  and  N_3
REMARK    2  A    between atoms: C_2  and  C_13
REMARK    3  A    between atoms: C_4  and  C_6
REMARK    4  A    between atoms: N_8  and  C_9
REMARK    5  A    between atoms: C_9  and  C_10
REMARK    6  A    between atoms: N_15  and  C_16
REMARK    7  A    between atoms: C_16  and  C_17
REMARK                            x       y       z     vdW  Elec       q    Type
REMARK                         _______ _______ _______ _____ _____    ______ ____
ROOT
ATOM      1  C   UNL     1       0.137  -1.023   1.912  0.00  0.00    +0.024 C 
ATOM      2  C   UNL     1       0.068  -1.549   0.350  0.00  0.00    +0.098 C 
ENDROOT
BRANCH   2   3
ATOM      3  C   UNL     1       0.281  -0.081  -0.303  0.00  0.00    +0.052 C 
ATOM      4  C   UNL     1       1.136  -0.460  -1.490  0.00  0.00    +0.076 C 
ATOM      5  N   UNL     1       2.147  -0.529  -0.523  0.00  0.00    -0.265 NA
ATOM      6  C   UNL     1       1.580   0.545   0.119  0.00  0.00    +0.076 C 
BRANCH   5   7
ATOM      7  C   UNL     1       3.049  -1.440  -0.223  0.00  0.00    +0.161 C 
BRANCH   7   8
ATOM      8  C   UNL     1       4.437  -0.966  -0.047  0.00  0.00    +0.266 C 
ATOM      9  N   UNL     1       4.694   0.409  -0.190  0.00  0.00    -0.124 NA
ATOM     10  C   UNL     1       6.027   0.865  -0.020  0.00  0.00    +0.366 C 
ATOM     11  O   UNL     1       6.975   0.065   0.250  0.00  0.00    -0.247 OA
ATOM     12  N   UNL     1       6.362   2.237  -0.144  0.00  0.00    -0.068 NA
ATOM     13  O   UNL     1       5.317  -1.806   0.218  0.00  0.00    -0.271 OA
ENDBRANCH   7   8
ENDBRANCH   5   7
ENDBRANCH   2   3
BRANCH   2  14
ATOM     14  N   UNL     1      -1.513  -1.471   0.309  0.00  0.00    -0.199 NA
ATOM     15  C   UNL     1      -2.132  -0.289   0.687  0.00  0.00    +0.320 C 
ATOM     16  O   UNL     1      -1.306   0.641   1.039  0.00  0.00    -0.263 OA
BRANCH  15  17
ATOM     17  C   UNL     1      -3.568  -0.039   0.709  0.00  0.00    +0.320 C 
ATOM     18  N   UNL     1      -4.018   1.217   1.109  0.00  0.00    -0.198 NA
ATOM     19  O   UNL     1      -4.345  -0.936   0.377  0.00  0.00    -0.263 OA
BRANCH  18  20
ATOM     20  C   UNL     1      -5.350   1.624   1.174  0.00  0.00    +0.116 C 
BRANCH  20  21
ATOM     21  C   UNL     1      -6.143   1.645  -0.071  0.00  0.00    +0.022 C 
ATOM     22  C   UNL     1      -7.476   0.982  -0.061  0.00  0.00    +0.002 C 
ATOM     23  C   UNL     1      -6.359   0.356  -0.868  0.00  0.00    +0.002 C 
ENDBRANCH  20  21
ENDBRANCH  18  20
ENDBRANCH  15  17
ENDBRANCH   2  14
TORSDOF 7
