REMARK  Name = 
REMARK  6 active torsions:
REMARK  status: ('A' for Active; 'I' for Inactive)
REMARK    1  A    between atoms: C_2  and  N_3
REMARK    2  A    between atoms: C_2  and  C_21
REMARK    3  A    between atoms: N_6  and  C_7
REMARK    4  A    between atoms: C_7  and  C_8
REMARK    5  A    between atoms: N_12  and  C_13
REMARK    6  A    between atoms: C_13  and  C_14
REMARK                            x       y       z     vdW  Elec       q    Type
REMARK                         _______ _______ _______ _____ _____    ______ ____
ROOT
ATOM      1  N   UNL     1      -1.845  -0.058   2.583  0.00  0.00    -0.184 NA
ATOM      2  C   UNL     1      -1.452  -0.612   1.376  0.00  0.00    +0.339 C 
ATOM      3  N   UNL     1      -0.306  -0.338   0.624  0.00  0.00    -0.187 NA
ATOM      4  O   UNL     1      -2.236  -1.468   0.911  0.00  0.00    -0.249 OA
ENDROOT
BRANCH   1   6
ATOM      5  C   UNL     1      -2.764  -2.147   3.201  0.00  0.00    +0.028 C 
ATOM      6  C   UNL     1      -3.188  -0.540   3.246  0.00  0.00    +0.119 C 
BRANCH   6   7
ATOM      7  C   UNL     1      -4.123  -0.513   1.938  0.00  0.00    -0.003 A 
ATOM      8  C   UNL     1      -4.018   0.624   1.191  0.00  0.00    -0.004 A 
ATOM      9  C   UNL     1      -4.790   0.753   0.043  0.00  0.00    +0.015 A 
ATOM     10  C   UNL     1      -4.911   1.855  -0.980  0.00  0.00    +0.077 C 
ATOM     11  C   UNL     1      -6.217   1.456  -1.643  0.00  0.00    +0.210 C 
ATOM     12  O   UNL     1      -6.309   0.055  -1.471  0.00  0.00    -0.475 OA
ATOM     13  C   UNL     1      -5.631  -0.273  -0.295  0.00  0.00    +0.135 A 
ATOM     14  C   UNL     1      -5.712  -1.421   0.495  0.00  0.00    +0.036 A 
ATOM     15  C   UNL     1      -4.931  -1.508   1.621  0.00  0.00    +0.000 A 
ENDBRANCH   6   7
ENDBRANCH   1   6
BRANCH   3  16
ATOM     16  C   UNL     1       0.070  -0.916  -0.608  0.00  0.00    +0.118 C 
BRANCH  16  17
ATOM     17  C   UNL     1       1.497  -0.266  -1.063  0.00  0.00    +0.038 C 
ATOM     18  C   UNL     1       2.139  -0.081   0.437  0.00  0.00    +0.074 C 
ATOM     19  N   UNL     1       3.485   0.301   0.084  0.00  0.00    -0.269 NA
ATOM     20  C   UNL     1       3.384   1.450  -0.794  0.00  0.00    +0.072 C 
ATOM     21  C   UNL     1       2.049   2.157  -0.656  0.00  0.00    +0.017 C 
ATOM     22  C   UNL     1       0.912   1.265  -1.105  0.00  0.00    +0.005 C 
BRANCH  19  23
ATOM     23  C   UNL     1       4.099  -0.797  -0.624  0.00  0.00    +0.099 C 
BRANCH  23  24
ATOM     24  C   UNL     1       5.486  -0.477  -1.057  0.00  0.00    -0.006 A 
ATOM     25  C   UNL     1       6.518  -0.978  -0.293  0.00  0.00    -0.003 A 
ATOM     26  C   UNL     1       7.801  -0.701  -0.671  0.00  0.00    -0.000 A 
ATOM     27  C   UNL     1       8.105   0.056  -1.781  0.00  0.00    -0.000 A 
ATOM     28  C   UNL     1       7.092   0.556  -2.544  0.00  0.00    -0.000 A 
ATOM     29  C   UNL     1       5.798   0.277  -2.163  0.00  0.00    -0.003 A 
ENDBRANCH  23  24
ENDBRANCH  19  23
ENDBRANCH  16  17
ENDBRANCH   3  16
TORSDOF 6
