REMARK  Name = 
REMARK  6 active torsions:
REMARK  status: ('A' for Active; 'I' for Inactive)
REMARK    1  A    between atoms: C_2  and  N_3
REMARK    2  A    between atoms: C_2  and  C_21
REMARK    3  A    between atoms: N_6  and  C_7
REMARK    4  A    between atoms: C_7  and  C_8
REMARK    5  A    between atoms: N_12  and  C_13
REMARK    6  A    between atoms: C_13  and  C_14
REMARK                            x       y       z     vdW  Elec       q    Type
REMARK                         _______ _______ _______ _____ _____    ______ ____
ROOT
ATOM      1  N   UNL     1       2.187  -0.974  -0.106  0.00  0.00    -0.184 NA
ATOM      2  C   UNL     1       0.858  -0.721   0.318  0.00  0.00    +0.339 C 
ATOM      3  N   UNL     1      -0.106  -0.347  -0.657  0.00  0.00    -0.187 NA
ATOM      4  O   UNL     1       0.457  -0.797   1.490  0.00  0.00    -0.249 OA
ENDROOT
BRANCH   1   6
ATOM      5  C   UNL     1       2.735  -0.202   2.079  0.00  0.00    +0.028 C 
ATOM      6  C   UNL     1       3.206  -1.397   1.028  0.00  0.00    +0.119 C 
BRANCH   6   7
ATOM      7  C   UNL     1       4.441  -0.535   0.427  0.00  0.00    -0.003 A 
ATOM      8  C   UNL     1       4.221   0.736   0.037  0.00  0.00    -0.004 A 
ATOM      9  C   UNL     1       5.299   1.443  -0.449  0.00  0.00    +0.015 A 
ATOM     10  C   UNL     1       5.422   2.831  -0.958  0.00  0.00    +0.077 C 
ATOM     11  C   UNL     1       6.894   3.111  -0.700  0.00  0.00    +0.210 C 
ATOM     12  O   UNL     1       7.448   1.832  -1.061  0.00  0.00    -0.475 OA
ATOM     13  C   UNL     1       6.549   0.881  -0.533  0.00  0.00    +0.135 A 
ATOM     14  C   UNL     1       6.711  -0.426  -0.120  0.00  0.00    +0.036 A 
ATOM     15  C   UNL     1       5.647  -1.181   0.379  0.00  0.00    +0.000 A 
ENDBRANCH   6   7
ENDBRANCH   1   6
BRANCH   3  16
ATOM     16  C   UNL     1      -1.433  -0.034  -0.507  0.00  0.00    +0.118 C 
BRANCH  16  17
ATOM     17  C   UNL     1      -2.299  -1.254   0.154  0.00  0.00    +0.038 C 
ATOM     18  C   UNL     1      -3.677  -0.737  -0.634  0.00  0.00    +0.074 C 
ATOM     19  N   UNL     1      -4.649  -1.694  -0.235  0.00  0.00    -0.269 NA
ATOM     20  C   UNL     1      -4.228  -3.030  -0.063  0.00  0.00    +0.072 C 
ATOM     21  C   UNL     1      -3.019  -3.438  -0.843  0.00  0.00    +0.017 C 
ATOM     22  C   UNL     1      -1.989  -2.355  -1.022  0.00  0.00    +0.005 C 
BRANCH  19  23
ATOM     23  C   UNL     1      -5.418  -1.168   0.863  0.00  0.00    +0.099 C 
BRANCH  23  24
ATOM     24  C   UNL     1      -5.649   0.287   0.512  0.00  0.00    -0.006 A 
ATOM     25  C   UNL     1      -6.420   0.528  -0.591  0.00  0.00    -0.003 A 
ATOM     26  C   UNL     1      -6.646   1.830  -0.985  0.00  0.00    -0.000 A 
ATOM     27  C   UNL     1      -6.107   2.876  -0.282  0.00  0.00    -0.000 A 
ATOM     28  C   UNL     1      -5.332   2.622   0.828  0.00  0.00    -0.000 A 
ATOM     29  C   UNL     1      -5.106   1.312   1.223  0.00  0.00    -0.003 A 
ENDBRANCH  23  24
ENDBRANCH  19  23
ENDBRANCH  16  17
ENDBRANCH   3  16
TORSDOF 6
