REMARK  Name = 
REMARK  7 active torsions:
REMARK  status: ('A' for Active; 'I' for Inactive)
REMARK    1  A    between atoms: S_2  and  N_5
REMARK    2  A    between atoms: N_5  and  C_6
REMARK    3  A    between atoms: C_6  and  C_7
REMARK    4  A    between atoms: N_15  and  C_16
REMARK    5  A    between atoms: C_16  and  C_17
REMARK    6  A    between atoms: N_21  and  C_22
REMARK    7  A    between atoms: C_22  and  C_23
REMARK                            x       y       z     vdW  Elec       q    Type
REMARK                         _______ _______ _______ _____ _____    ______ ____
ROOT
ATOM      1  C   UNL     1      -3.695  -0.283  -1.491  0.00  0.00    +0.126 C 
ATOM      2  N   UNL     1      -2.861  -1.538  -1.053  0.00  0.00    -0.258 N 
ATOM      3  C   UNL     1      -1.472  -1.400  -1.256  0.00  0.00    +0.323 C 
ATOM      4  N   UNL     1      -0.894  -0.290  -1.781  0.00  0.00    -0.188 NA
ATOM      5  O   UNL     1      -0.783  -2.394  -0.912  0.00  0.00    -0.251 OA
ATOM      6  C   UNL     1      -3.528  -2.659  -0.514  0.00  0.00    +0.127 C 
ATOM      7  C   UNL     1      -4.531  -3.297  -1.457  0.00  0.00    +0.164 C 
ATOM      8  O   UNL     1      -5.010  -2.206  -2.213  0.00  0.00    -0.350 OA
ATOM      9  C   UNL     1      -5.153  -1.087  -1.464  0.00  0.00    +0.163 C 
ENDROOT
BRANCH   1  10
ATOM     10  C   UNL     1      -3.830   0.337   0.048  0.00  0.00    +0.137 C 
BRANCH  10  11
ATOM     11  N   UNL     1      -5.067   1.112  -0.150  0.00  0.00    -0.080 NA
BRANCH  11  13
ATOM     12  C   UNL     1      -5.794   0.696   2.578  0.00  0.00    +0.197 C 
ATOM     13  S   UNL     1      -5.491   1.902   1.311  0.00  0.00    +0.059 S 
ATOM     14  O   UNL     1      -4.347   2.778   1.740  0.00  0.00    -0.156 OA
ATOM     15  O   UNL     1      -6.740   2.685   1.099  0.00  0.00    -0.156 OA
ENDBRANCH  11  13
ENDBRANCH  10  11
ENDBRANCH   1  10
BRANCH   4  16
ATOM     16  C   UNL     1       0.347   0.160  -2.084  0.00  0.00    +0.118 C 
BRANCH  16  17
ATOM     17  C   UNL     1       1.254   0.345  -0.795  0.00  0.00    +0.038 C 
ATOM     18  C   UNL     1       2.688   0.242  -1.598  0.00  0.00    +0.074 C 
ATOM     19  N   UNL     1       3.701   0.154  -0.607  0.00  0.00    -0.269 NA
ATOM     20  C   UNL     1       3.654  -0.991   0.234  0.00  0.00    +0.072 C 
ATOM     21  C   UNL     1       2.300  -1.210   0.830  0.00  0.00    +0.017 C 
ATOM     22  C   UNL     1       1.278  -1.180  -0.289  0.00  0.00    +0.005 C 
BRANCH  19  23
ATOM     23  C   UNL     1       4.052   1.377   0.032  0.00  0.00    +0.099 C 
BRANCH  23  24
ATOM     24  C   UNL     1       5.394   1.242   0.630  0.00  0.00    -0.006 A 
ATOM     25  C   UNL     1       6.499   1.567  -0.103  0.00  0.00    -0.003 A 
ATOM     26  C   UNL     1       7.795   1.462   0.402  0.00  0.00    -0.000 A 
ATOM     27  C   UNL     1       7.894   1.006   1.703  0.00  0.00    -0.000 A 
ATOM     28  C   UNL     1       6.811   0.675   2.457  0.00  0.00    -0.000 A 
ATOM     29  C   UNL     1       5.529   0.794   1.915  0.00  0.00    -0.003 A 
ENDBRANCH  23  24
ENDBRANCH  19  23
ENDBRANCH  16  17
ENDBRANCH   4  16
TORSDOF 7
