REMARK  Name = 
REMARK  7 active torsions:
REMARK  status: ('A' for Active; 'I' for Inactive)
REMARK    1  A    between atoms: C_2  and  N_3
REMARK    2  A    between atoms: C_2  and  C_15
REMARK    3  A    between atoms: C_4  and  C_6
REMARK    4  A    between atoms: C_6  and  C_7
REMARK    5  A    between atoms: N_17  and  C_18
REMARK    6  A    between atoms: C_18  and  C_19
REMARK    7  A    between atoms: C_19  and  C_20
REMARK                            x       y       z     vdW  Elec       q    Type
REMARK                         _______ _______ _______ _____ _____    ______ ____
ROOT
ATOM      1  N   UNL     1      -0.152  -1.023  -0.442  0.00  0.00    -0.207 NA
ATOM      2  C   UNL     1      -1.401  -0.445  -0.730  0.00  0.00    +0.241 C 
ATOM      3  O   UNL     1      -1.375   0.696  -1.247  0.00  0.00    -0.273 OA
ENDROOT
BRANCH   1   5
ATOM      4  C   UNL     1       0.639   1.162  -0.031  0.00  0.00    +0.024 C 
ATOM      5  C   UNL     1       1.142  -0.232  -0.776  0.00  0.00    +0.098 C 
BRANCH   5   6
ATOM      6  C   UNL     1       1.960  -0.713   0.575  0.00  0.00    +0.052 C 
ATOM      7  C   UNL     1       3.296  -0.035   0.574  0.00  0.00    +0.075 C 
ATOM      8  N   UNL     1       3.869  -1.366   0.479  0.00  0.00    -0.272 NA
ATOM      9  C   UNL     1       2.605  -2.032   0.283  0.00  0.00    +0.075 C 
BRANCH   8  10
ATOM     10  C   UNL     1       4.704  -1.345  -0.711  0.00  0.00    +0.072 C 
BRANCH  10  11
ATOM     11  C   UNL     1       5.933  -0.581  -0.237  0.00  0.00    +0.017 C 
BRANCH  11  12
ATOM     12  C   UNL     1       6.909  -0.487  -1.383  0.00  0.00    +0.001 C 
ATOM     13  C   UNL     1       7.068   1.000  -1.769  0.00  0.00    +0.000 C 
ATOM     14  C   UNL     1       8.162   0.268  -1.024  0.00  0.00    +0.000 C 
ENDBRANCH  11  12
ENDBRANCH  10  11
ENDBRANCH   8  10
ENDBRANCH   5   6
ENDBRANCH   1   5
BRANCH   2  15
ATOM     15  C   UNL     1      -2.685  -1.084  -0.466  0.00  0.00    +0.089 C 
BRANCH  15  16
ATOM     16  C   UNL     1      -3.818   0.048  -0.793  0.00  0.00    +0.033 C 
ATOM     17  C   UNL     1      -3.638   0.785   0.611  0.00  0.00    +0.151 C 
ATOM     18  S   UNL     1      -5.083   1.519   1.202  0.00  0.00    -0.010 S 
ATOM     19  O   UNL     1      -4.958   2.142   2.555  0.00  0.00    -0.173 OA
ATOM     20  O   UNL     1      -5.493   2.600   0.248  0.00  0.00    -0.173 OA
ATOM     21  C   UNL     1      -6.344   0.265   1.160  0.00  0.00    +0.151 C 
ATOM     22  C   UNL     1      -6.302  -0.187  -0.288  0.00  0.00    +0.025 C 
ATOM     23  C   UNL     1      -5.036  -0.955  -0.410  0.00  0.00    +0.004 C 
ENDBRANCH  15  16
ENDBRANCH   2  15
TORSDOF 7
