REMARK  Name = 
REMARK  5 active torsions:
REMARK  status: ('A' for Active; 'I' for Inactive)
REMARK    1  A    between atoms: N_3  and  C_4
REMARK    2  A    between atoms: C_4  and  C_5
REMARK    3  A    between atoms: N_14  and  C_15
REMARK    4  A    between atoms: C_15  and  C_16
REMARK    5  A    between atoms: C_21  and  C_22
REMARK                            x       y       z     vdW  Elec       q    Type
REMARK                         _______ _______ _______ _____ _____    ______ ____
ROOT
ATOM      1  O   UNL     1       0.252  -0.337  -0.442  0.00  0.00    -0.249 OA
ATOM      2  C   UNL     1       0.065   0.561  -1.301  0.00  0.00    +0.340 C 
ATOM      3  N   UNL     1      -1.124   1.333  -1.178  0.00  0.00    -0.182 NA
ATOM      4  N   UNL     1       1.013   0.777  -2.339  0.00  0.00    -0.182 NA
ENDROOT
BRANCH   3   5
ATOM      5  C   UNL     1      -2.118   1.149  -0.141  0.00  0.00    +0.143 C 
BRANCH   5   6
ATOM      6  C   UNL     1      -2.696  -0.208  -0.203  0.00  0.00    +0.003 A 
ATOM      7  C   UNL     1      -3.663  -0.630   0.681  0.00  0.00    +0.069 A 
ATOM      8  C   UNL     1      -4.182  -1.928   0.578  0.00  0.00    +0.004 A 
ATOM      9  C   UNL     1      -3.751  -2.805  -0.390  0.00  0.00    -0.000 A 
ATOM     10  C   UNL     1      -2.788  -2.384  -1.272  0.00  0.00    -0.000 A 
ATOM     11  C   UNL     1      -2.289  -1.108  -1.156  0.00  0.00    -0.003 A 
BRANCH   7  12
ATOM     12  C   UNL     1      -4.118   0.317   1.714  0.00  0.00    +0.418 C 
ATOM     13  F   UNL     1      -5.067  -0.240   2.537  0.00  0.00    -0.166 F 
ATOM     14  F   UNL     1      -4.587   1.474   1.085  0.00  0.00    -0.166 F 
ATOM     15  F   UNL     1      -3.027   0.686   2.511  0.00  0.00    -0.166 F 
ENDBRANCH   7  12
ENDBRANCH   5   6
ENDBRANCH   3   5
BRANCH   4  16
ATOM     16  C   UNL     1       2.206   0.005  -2.459  0.00  0.00    +0.144 C 
BRANCH  16  17
ATOM     17  C   UNL     1       3.023   0.196  -1.234  0.00  0.00    +0.008 A 
ATOM     18  C   UNL     1       4.224  -0.456  -1.117  0.00  0.00    +0.035 A 
ATOM     19 BR   UNL     1       4.779  -1.587  -2.548  0.00  0.00    -0.049 Br
ATOM     20  C   UNL     1       5.012  -0.295   0.014  0.00  0.00    +0.038 A 
ATOM     21  C   UNL     1       4.588   0.527   1.033  0.00  0.00    +0.168 A 
ATOM     22  F   UNL     1       5.315   0.721   2.157  0.00  0.00    -0.202 F 
ATOM     23  C   UNL     1       3.375   1.203   0.947  0.00  0.00    +0.167 A 
ATOM     24  F   UNL     1       2.927   2.021   1.931  0.00  0.00    -0.202 F 
ATOM     25  C   UNL     1       2.633   1.008  -0.196  0.00  0.00    +0.030 A 
ENDBRANCH  16  17
ENDBRANCH   4  16
TORSDOF 5
