REMARK  Name = 
REMARK  7 active torsions:
REMARK  status: ('A' for Active; 'I' for Inactive)
REMARK    1  A    between atoms: S_2  and  N_5
REMARK    2  A    between atoms: N_5  and  C_6
REMARK    3  A    between atoms: C_6  and  C_7
REMARK    4  A    between atoms: N_15  and  C_16
REMARK    5  A    between atoms: C_16  and  C_17
REMARK    6  A    between atoms: N_21  and  C_22
REMARK    7  A    between atoms: C_22  and  C_23
REMARK                            x       y       z     vdW  Elec       q    Type
REMARK                         _______ _______ _______ _____ _____    ______ ____
ROOT
ATOM      1  C   UNL     1      -4.263  -0.317  -2.079  0.00  0.00    +0.126 C 
ATOM      2  N   UNL     1      -2.821   0.303  -2.162  0.00  0.00    -0.258 N 
ATOM      3  C   UNL     1      -1.754  -0.562  -1.885  0.00  0.00    +0.323 C 
ATOM      4  N   UNL     1      -0.393  -0.171  -1.914  0.00  0.00    -0.188 NA
ATOM      5  O   UNL     1      -2.000  -1.758  -1.592  0.00  0.00    -0.251 OA
ATOM      6  C   UNL     1      -2.741   1.681  -2.510  0.00  0.00    +0.127 C 
ATOM      7  C   UNL     1      -3.170   2.444  -1.258  0.00  0.00    +0.164 C 
ATOM      8  O   UNL     1      -4.316   1.763  -0.829  0.00  0.00    -0.350 OA
ATOM      9  C   UNL     1      -4.999   1.138  -1.813  0.00  0.00    +0.163 C 
ENDROOT
BRANCH   1  10
ATOM     10  C   UNL     1      -4.122  -0.695  -0.475  0.00  0.00    +0.137 C 
BRANCH  10  11
ATOM     11  N   UNL     1      -5.523  -0.691  -0.079  0.00  0.00    -0.080 NA
BRANCH  11  13
ATOM     12  C   UNL     1      -4.928  -2.705   1.809  0.00  0.00    +0.197 C 
ATOM     13  S   UNL     1      -5.610  -1.065   1.575  0.00  0.00    +0.059 S 
ATOM     14  O   UNL     1      -4.821  -0.118   2.438  0.00  0.00    -0.156 OA
ATOM     15  O   UNL     1      -7.061  -1.044   2.003  0.00  0.00    -0.156 OA
ENDBRANCH  11  13
ENDBRANCH  10  11
ENDBRANCH   1  10
BRANCH   4  16
ATOM     16  C   UNL     1       0.617  -1.163  -1.608  0.00  0.00    +0.118 C 
BRANCH  16  17
ATOM     17  C   UNL     1       2.011  -0.308  -1.754  0.00  0.00    +0.038 C 
ATOM     18  C   UNL     1       2.847  -1.317  -0.775  0.00  0.00    +0.074 C 
ATOM     19  N   UNL     1       3.561  -0.591   0.155  0.00  0.00    -0.269 NA
ATOM     20  C   UNL     1       2.771  -0.160   1.261  0.00  0.00    +0.072 C 
ATOM     21  C   UNL     1       1.357  -0.029   0.660  0.00  0.00    +0.017 C 
ATOM     22  C   UNL     1       1.593   0.762  -0.586  0.00  0.00    +0.005 C 
BRANCH  19  23
ATOM     23  C   UNL     1       4.657   0.189  -0.211  0.00  0.00    +0.099 C 
BRANCH  23  24
ATOM     24  C   UNL     1       5.612   0.293   0.897  0.00  0.00    -0.006 A 
ATOM     25  C   UNL     1       5.517   1.303   1.814  0.00  0.00    -0.003 A 
ATOM     26  C   UNL     1       6.420   1.417   2.877  0.00  0.00    -0.000 A 
ATOM     27  C   UNL     1       7.412   0.467   2.963  0.00  0.00    -0.000 A 
ATOM     28  C   UNL     1       7.534  -0.556   2.061  0.00  0.00    -0.000 A 
ATOM     29  C   UNL     1       6.614  -0.631   1.018  0.00  0.00    -0.003 A 
ENDBRANCH  23  24
ENDBRANCH  19  23
ENDBRANCH  16  17
ENDBRANCH   4  16
TORSDOF 7
