REMARK  Name = 
REMARK  8 active torsions:
REMARK  status: ('A' for Active; 'I' for Inactive)
REMARK    1  A    between atoms: C_2  and  C_4
REMARK    2  A    between atoms: C_4  and  O_5
REMARK    3  A    between atoms: O_5  and  C_6
REMARK    4  A    between atoms: C_6  and  C_7
REMARK    5  A    between atoms: C_7  and  N_8
REMARK    6  A    between atoms: C_10  and  C_11
REMARK    7  A    between atoms: C_11  and  N_13
REMARK    8  A    between atoms: C_14  and  C_16
REMARK                            x       y       z     vdW  Elec       q    Type
REMARK                         _______ _______ _______ _____ _____    ______ ____
ROOT
ATOM      1  N   UNL     1       1.971  -0.517  -0.265  0.00  0.00    -0.270 NA
ATOM      2  C   UNL     1       0.945  -0.156   0.687  0.00  0.00    +0.075 C 
ATOM      3  C   UNL     1       0.455  -1.512   0.659  0.00  0.00    +0.052 C 
ATOM      4  C   UNL     1       1.861  -1.868   0.239  0.00  0.00    +0.075 C 
ENDROOT
BRANCH   3   5
ATOM      5  C   UNL     1      -0.449  -1.907  -0.654  0.00  0.00    +0.098 C 
ATOM      6  C   UNL     1       0.283  -0.892  -1.734  0.00  0.00    +0.024 C 
BRANCH   5   7
ATOM      7  N   UNL     1      -1.602  -0.861  -0.376  0.00  0.00    -0.201 NA
ATOM      8  C   UNL     1      -2.891  -1.319  -0.233  0.00  0.00    +0.301 C 
ATOM      9  O   UNL     1      -3.184  -2.559  -0.318  0.00  0.00    -0.265 OA
BRANCH   8  10
ATOM     10  C   UNL     1      -3.963  -0.366   0.023  0.00  0.00    +0.219 A 
ATOM     11  N   UNL     1      -5.240  -0.782   0.166  0.00  0.00    -0.221 NA
ATOM     12  C   UNL     1      -6.190   0.119   0.397  0.00  0.00    +0.102 A 
ATOM     13  C   UNL     1      -5.896   1.467   0.494  0.00  0.00    +0.041 A 
ATOM     14  C   UNL     1      -4.582   1.869   0.345  0.00  0.00    +0.102 A 
ATOM     15  N   UNL     1      -3.647   0.940   0.112  0.00  0.00    -0.221 NA
ENDBRANCH   8  10
ENDBRANCH   5   7
ENDBRANCH   3   5
BRANCH   1  16
ATOM     16  C   UNL     1       3.216   0.156   0.112  0.00  0.00    +0.105 C 
BRANCH  16  17
ATOM     17  C   UNL     1       4.337  -0.542  -0.617  0.00  0.00    +0.159 C 
BRANCH  17  18
ATOM     18  O   UNL     1       5.564   0.003  -0.342  0.00  0.00    -0.352 OA
BRANCH  18  19
ATOM     19  C   UNL     1       5.722   1.326  -0.696  0.00  0.00    +0.142 C 
BRANCH  19  21
ATOM     20  C   UNL     1       4.814   2.328   1.395  0.00  0.00    +0.003 C 
ATOM     21  C   UNL     1       4.813   2.243  -0.063  0.00  0.00    +0.030 C 
ATOM     22  C   UNL     1       3.664   2.832  -0.755  0.00  0.00    +0.003 C 
ENDBRANCH  19  21
ENDBRANCH  18  19
ENDBRANCH  17  18
ENDBRANCH  16  17
ENDBRANCH   1  16
TORSDOF 8
