REMARK  Name = 
REMARK  8 active torsions:
REMARK  status: ('A' for Active; 'I' for Inactive)
REMARK    1  A    between atoms: C_2  and  C_3
REMARK    2  A    between atoms: C_3  and  N_4
REMARK    3  A    between atoms: C_5  and  C_7
REMARK    4  A    between atoms: C_7  and  N_8
REMARK    5  A    between atoms: C_10  and  C_11
REMARK    6  A    between atoms: C_11  and  N_13
REMARK    7  A    between atoms: C_14  and  C_16
REMARK    8  A    between atoms: C_18  and  C_19
REMARK                            x       y       z     vdW  Elec       q    Type
REMARK                         _______ _______ _______ _____ _____    ______ ____
ROOT
ATOM      1  C   UNL     1       0.868  -1.572   0.955  0.00  0.00    +0.098 C 
ATOM      2  C   UNL     1       1.029  -0.540   2.229  0.00  0.00    +0.024 C 
ENDROOT
BRANCH   1   5
ATOM      3  N   UNL     1       1.789   0.426  -1.500  0.00  0.00    -0.265 NA
ATOM      4  C   UNL     1       1.563  -0.996  -1.358  0.00  0.00    +0.076 C 
ATOM      5  C   UNL     1       1.991  -0.830   0.071  0.00  0.00    +0.052 C 
ATOM      6  C   UNL     1       1.524   0.560  -0.099  0.00  0.00    +0.076 C 
BRANCH   3   7
ATOM      7  C   UNL     1       2.950   0.831  -2.106  0.00  0.00    +0.160 C 
BRANCH   7   9
ATOM      8  N   UNL     1       4.203  -1.162  -1.171  0.00  0.00    -0.199 NA
ATOM      9  C   UNL     1       4.135   0.043  -1.893  0.00  0.00    +0.258 C 
ATOM     10  O   UNL     1       5.220   0.472  -2.410  0.00  0.00    -0.272 OA
BRANCH   8  11
ATOM     11  C   UNL     1       5.382  -1.969  -0.955  0.00  0.00    +0.141 C 
BRANCH  11  13
ATOM     12  C   UNL     1       6.794  -1.550   0.977  0.00  0.00    -0.003 C 
ATOM     13  C   UNL     1       6.379  -1.132  -0.217  0.00  0.00    -0.003 C 
ENDBRANCH  11  13
ENDBRANCH   8  11
ENDBRANCH   7   9
ENDBRANCH   3   7
ENDBRANCH   1   5
BRANCH   1  14
ATOM     14  N   UNL     1      -0.375  -0.930   0.269  0.00  0.00    -0.203 NA
ATOM     15  C   UNL     1      -1.500  -0.633   1.025  0.00  0.00    +0.267 C 
ATOM     16  O   UNL     1      -1.340  -0.951   2.249  0.00  0.00    -0.268 OA
BRANCH  15  17
ATOM     17  C   UNL     1      -2.743  -0.036   0.563  0.00  0.00    +0.088 A 
ATOM     18  C   UNL     1      -3.133   0.413  -0.672  0.00  0.00    +0.127 A 
ATOM     19  C   UNL     1      -2.293   0.378  -1.892  0.00  0.00    +0.073 C 
ATOM     20  O   UNL     1      -4.357   0.881  -0.623  0.00  0.00    -0.462 OA
ATOM     21  C   UNL     1      -4.851   0.787   0.570  0.00  0.00    +0.122 A 
ATOM     22  C   UNL     1      -3.845   0.204   1.359  0.00  0.00    +0.040 A 
BRANCH  21  23
ATOM     23  C   UNL     1      -6.189   1.183   1.091  0.00  0.00    +0.057 C 
ATOM     24  C   UNL     1      -6.083   1.631   2.549  0.00  0.00    +0.008 C 
ATOM     25  C   UNL     1      -7.118   0.026   0.990  0.00  0.00    +0.008 C 
ENDBRANCH  21  23
ENDBRANCH  15  17
ENDBRANCH   1  14
TORSDOF 8
