REMARK  Name = 
REMARK  9 active torsions:
REMARK  status: ('A' for Active; 'I' for Inactive)
REMARK    1  A    between atoms: C_2  and  C_3
REMARK    2  A    between atoms: C_3  and  C_4
REMARK    3  A    between atoms: C_4  and  C_5
REMARK    4  A    between atoms: C_5  and  C_6
REMARK    5  A    between atoms: C_6  and  N_7
REMARK    6  A    between atoms: C_6  and  C_21
REMARK    7  A    between atoms: N_10  and  C_11
REMARK    8  A    between atoms: C_11  and  C_12
REMARK    9  A    between atoms: C_12  and  N_14
REMARK                            x       y       z     vdW  Elec       q    Type
REMARK                         _______ _______ _______ _____ _____    ______ ____
ROOT
ATOM      1  N   UNL     1       0.676   0.346   0.517  0.00  0.00    -0.184 NA
ATOM      2  C   UNL     1      -0.195  -0.746   0.562  0.00  0.00    +0.340 C 
ATOM      3  N   UNL     1      -1.333  -0.828   1.442  0.00  0.00    -0.186 NA
ATOM      4  O   UNL     1       0.038  -1.712  -0.217  0.00  0.00    -0.249 OA
ENDROOT
BRANCH   1   5
ATOM      5  C   UNL     1       1.838   0.191  -0.517  0.00  0.00    +0.119 C 
BRANCH   5   6
ATOM      6  C   UNL     1       2.346   1.670  -0.414  0.00  0.00    -0.003 A 
ATOM      7  C   UNL     1       3.627   1.998  -0.261  0.00  0.00    -0.003 A 
ATOM      8  C   UNL     1       4.016   3.307  -0.190  0.00  0.00    -0.000 A 
ATOM      9  C   UNL     1       3.058   4.281  -0.281  0.00  0.00    -0.000 A 
ATOM     10  C   UNL     1       1.723   3.979  -0.440  0.00  0.00    -0.000 A 
ATOM     11  C   UNL     1       1.369   2.614  -0.507  0.00  0.00    -0.003 A 
ENDBRANCH   5   6
BRANCH   5  12
ATOM     12  C   UNL     1       2.893  -0.427   0.598  0.00  0.00    +0.027 C 
BRANCH  12  13
ATOM     13  C   UNL     1       4.110  -0.649  -0.275  0.00  0.00    +0.007 C 
BRANCH  13  14
ATOM     14  C   UNL     1       5.219  -1.227   0.564  0.00  0.00    +0.026 C 
BRANCH  14  16
ATOM     15  C   UNL     1       6.886  -2.743  -0.280  0.00  0.00    -0.005 C 
ATOM     16  C   UNL     1       6.450  -1.481  -0.229  0.00  0.00    -0.026 C 
ENDBRANCH  14  16
ENDBRANCH  13  14
ENDBRANCH  12  13
ENDBRANCH   5  12
ENDBRANCH   1   5
BRANCH   3  17
ATOM     17  C   UNL     1      -2.131  -2.028   1.370  0.00  0.00    +0.133 C 
BRANCH  17  18
ATOM     18  C   UNL     1      -2.719  -2.127  -0.152  0.00  0.00    +0.079 C 
ATOM     19  C   UNL     1      -3.503  -3.560   0.168  0.00  0.00    +0.019 C 
BRANCH  18  20
ATOM     20  N   UNL     1      -4.014  -1.297   0.140  0.00  0.00    -0.272 NA
ATOM     21  C   UNL     1      -4.727  -1.457  -1.099  0.00  0.00    +0.072 C 
ATOM     22  C   UNL     1      -5.877  -0.516  -1.265  0.00  0.00    +0.017 C 
ATOM     23  C   UNL     1      -5.701   0.774  -0.502  0.00  0.00    +0.003 C 
ATOM     24  C   UNL     1      -6.158   0.550   0.927  0.00  0.00    +0.000 C 
ATOM     25  C   UNL     1      -4.216   1.074  -0.417  0.00  0.00    +0.017 C 
ATOM     26  C   UNL     1      -3.676   0.016   0.510  0.00  0.00    +0.072 C 
ENDBRANCH  18  20
ENDBRANCH  17  18
ENDBRANCH   3  17
TORSDOF 9
