REMARK  Name = 
REMARK  7 active torsions:
REMARK  status: ('A' for Active; 'I' for Inactive)
REMARK    1  A    between atoms: O_2  and  C_3
REMARK    2  A    between atoms: C_3  and  C_5
REMARK    3  A    between atoms: C_10  and  N_11
REMARK    4  A    between atoms: N_14  and  C_15
REMARK    5  A    between atoms: C_15  and  C_16
REMARK    6  A    between atoms: N_20  and  C_21
REMARK    7  A    between atoms: C_21  and  C_22
REMARK                            x       y       z     vdW  Elec       q    Type
REMARK                         _______ _______ _______ _____ _____    ______ ____
ROOT
ATOM      1  N   UNL     1       1.082  -1.314   0.177  0.00  0.00    -0.189 NA
ATOM      2  C   UNL     1      -0.127  -0.868  -0.368  0.00  0.00    +0.339 C 
ATOM      3  N   UNL     1      -1.406  -0.932   0.239  0.00  0.00    -0.187 NA
ATOM      4  O   UNL     1      -0.073  -0.347  -1.542  0.00  0.00    -0.249 OA
ENDROOT
BRANCH   1  11
ATOM      5  C   UNL     1       6.634  -1.485  -0.318  0.00  0.00    +0.104 C 
ATOM      6  C   UNL     1       5.763  -1.861   0.873  0.00  0.00    +0.038 C 
ATOM      7  C   UNL     1       4.678  -1.038   0.257  0.00  0.00    +0.095 C 
ATOM      8  O   UNL     1       4.708   0.337   0.441  0.00  0.00    -0.358 OA
ATOM      9  C   UNL     1       3.948   0.773  -0.684  0.00  0.00    +0.144 C 
ATOM     10  C   UNL     1       2.513   0.465  -0.276  0.00  0.00    +0.054 C 
ATOM     11  C   UNL     1       2.357  -1.123  -0.704  0.00  0.00    +0.102 C 
ATOM     12  C   UNL     1       3.362  -1.640   0.483  0.00  0.00    +0.049 C 
ATOM     13  C   UNL     1       5.369  -1.265  -1.077  0.00  0.00    +0.038 C 
BRANCH   5  14
ATOM     14  C   UNL     1       7.474  -0.392   0.096  0.00  0.00    +0.317 C 
ATOM     15  O   UNL     1       7.764  -0.298   1.315  0.00  0.00    -0.250 OA
BRANCH  14  17
ATOM     16  C   UNL     1       8.846   1.630  -0.164  0.00  0.00    +0.256 C 
ATOM     17  O   UNL     1       8.024   0.603  -0.706  0.00  0.00    -0.444 OA
ENDBRANCH  14  17
ENDBRANCH   5  14
ENDBRANCH   1  11
BRANCH   3  18
ATOM     18  C   UNL     1      -2.593  -0.409  -0.473  0.00  0.00    +0.118 C 
BRANCH  18  19
ATOM     19  C   UNL     1      -2.205   1.156  -0.692  0.00  0.00    +0.038 C 
ATOM     20  C   UNL     1      -2.676   1.602   0.790  0.00  0.00    +0.074 C 
ATOM     21  N   UNL     1      -4.045   1.583   0.931  0.00  0.00    -0.269 NA
ATOM     22  C   UNL     1      -4.771   2.627   0.301  0.00  0.00    +0.072 C 
ATOM     23  C   UNL     1      -4.035   2.858  -1.004  0.00  0.00    +0.017 C 
ATOM     24  C   UNL     1      -3.590   1.517  -1.453  0.00  0.00    +0.005 C 
BRANCH  21  25
ATOM     25  C   UNL     1      -4.678   0.806   1.887  0.00  0.00    +0.099 C 
BRANCH  25  26
ATOM     26  C   UNL     1      -5.893   0.115   1.369  0.00  0.00    -0.006 A 
ATOM     27  C   UNL     1      -5.840  -0.925   0.475  0.00  0.00    -0.003 A 
ATOM     28  C   UNL     1      -6.971  -1.562  -0.016  0.00  0.00    -0.000 A 
ATOM     29  C   UNL     1      -8.192  -1.107   0.434  0.00  0.00    -0.000 A 
ATOM     30  C   UNL     1      -8.287  -0.054   1.342  0.00  0.00    -0.000 A 
ATOM     31  C   UNL     1      -7.140   0.546   1.799  0.00  0.00    -0.003 A 
ENDBRANCH  25  26
ENDBRANCH  21  25
ENDBRANCH  18  19
ENDBRANCH   3  18
TORSDOF 7
