REMARK  Name = 
REMARK  8 active torsions:
REMARK  status: ('A' for Active; 'I' for Inactive)
REMARK    1  A    between atoms: C_2  and  C_3
REMARK    2  A    between atoms: C_3  and  C_5
REMARK    3  A    between atoms: C_5  and  N_6
REMARK    4  A    between atoms: C_8  and  C_9
REMARK    5  A    between atoms: C_9  and  N_11
REMARK    6  A    between atoms: C_12  and  C_14
REMARK    7  A    between atoms: C_14  and  C_15
REMARK    8  A    between atoms: C_20  and  N_21
REMARK                            x       y       z     vdW  Elec       q    Type
REMARK                         _______ _______ _______ _____ _____    ______ ____
ROOT
ATOM      1  N   UNL     1       0.542  -0.719   0.596  0.00  0.00    -0.207 NA
ATOM      2  C   UNL     1      -0.812  -0.978   0.556  0.00  0.00    +0.246 C 
ATOM      3  O   UNL     1      -1.349  -1.232  -0.552  0.00  0.00    -0.273 OA
ENDROOT
BRANCH   1   4
ATOM      4  C   UNL     1       1.454  -0.721  -0.644  0.00  0.00    +0.098 C 
ATOM      5  C   UNL     1       0.273  -0.547  -1.745  0.00  0.00    +0.024 C 
BRANCH   4   8
ATOM      6  N   UNL     1       3.767   0.865  -0.658  0.00  0.00    -0.270 NA
ATOM      7  C   UNL     1       2.822   1.208  -1.633  0.00  0.00    +0.075 C 
ATOM      8  C   UNL     1       1.794   0.868  -0.583  0.00  0.00    +0.052 C 
ATOM      9  C   UNL     1       2.912   1.118   0.398  0.00  0.00    +0.075 C 
BRANCH   6  10
ATOM     10  C   UNL     1       5.112   1.012  -0.717  0.00  0.00    +0.108 C 
BRANCH  10  11
ATOM     11  C   UNL     1       5.715  -0.130   0.291  0.00  0.00    +0.177 C 
ATOM     12  F   UNL     1       5.754  -1.181  -0.799  0.00  0.00    -0.236 F 
BRANCH  11  14
ATOM     13  C   UNL     1       7.458   1.426   1.008  0.00  0.00    +0.003 C 
ATOM     14  C   UNL     1       7.280   0.327  -0.022  0.00  0.00    +0.037 C 
ENDBRANCH  11  14
ENDBRANCH  10  11
ENDBRANCH   6  10
ENDBRANCH   4   8
ENDBRANCH   1   4
BRANCH   2  15
ATOM     15  C   UNL     1      -1.590  -0.944   1.841  0.00  0.00    +0.114 C 
BRANCH  15  16
ATOM     16  C   UNL     1      -2.998  -1.232   1.476  0.00  0.00    +0.002 A 
ATOM     17  C   UNL     1      -3.704  -0.220   0.877  0.00  0.00    +0.070 A 
ATOM     18  C   UNL     1      -5.015  -0.498   0.543  0.00  0.00    +0.016 A 
ATOM     19  C   UNL     1      -5.582  -1.717   0.796  0.00  0.00    +0.001 A 
ATOM     20  C   UNL     1      -4.834  -2.724   1.408  0.00  0.00    -0.000 A 
ATOM     21  C   UNL     1      -3.525  -2.468   1.748  0.00  0.00    -0.002 A 
BRANCH  17  22
ATOM     22  N   UNL     1      -3.175   1.059   0.590  0.00  0.00    -0.180 NA
ATOM     23  C   UNL     1      -3.874   2.102  -0.021  0.00  0.00    +0.246 C 
ATOM     24  O   UNL     1      -5.091   1.876  -0.344  0.00  0.00    -0.273 OA
ATOM     25  C   UNL     1      -3.334   3.450  -0.331  0.00  0.00    +0.097 C 
ENDBRANCH  17  22
ENDBRANCH  15  16
ENDBRANCH   2  15
TORSDOF 8
