REMARK  Name = 
REMARK  7 active torsions:
REMARK  status: ('A' for Active; 'I' for Inactive)
REMARK    1  A    between atoms: S_2  and  N_5
REMARK    2  A    between atoms: N_5  and  C_6
REMARK    3  A    between atoms: C_6  and  C_7
REMARK    4  A    between atoms: N_15  and  C_16
REMARK    5  A    between atoms: C_16  and  C_17
REMARK    6  A    between atoms: N_21  and  C_22
REMARK    7  A    between atoms: C_22  and  C_23
REMARK                            x       y       z     vdW  Elec       q    Type
REMARK                         _______ _______ _______ _____ _____    ______ ____
ROOT
ATOM      1  C   UNL     1       3.693  -1.679  -0.754  0.00  0.00    +0.126 C 
ATOM      2  N   UNL     1       2.465  -1.154  -1.516  0.00  0.00    -0.258 N 
ATOM      3  C   UNL     1       1.252  -1.684  -1.045  0.00  0.00    +0.323 C 
ATOM      4  N   UNL     1       0.017  -1.294  -1.650  0.00  0.00    -0.188 NA
ATOM      5  O   UNL     1       1.152  -2.506  -0.098  0.00  0.00    -0.251 OA
ATOM      6  C   UNL     1       2.499  -0.245  -2.572  0.00  0.00    +0.127 C 
ATOM      7  C   UNL     1       3.909   0.034  -2.950  0.00  0.00    +0.164 C 
ATOM      8  O   UNL     1       4.794  -0.958  -2.815  0.00  0.00    -0.350 OA
ATOM      9  C   UNL     1       4.549  -2.035  -2.091  0.00  0.00    +0.163 C 
ENDROOT
BRANCH   1  10
ATOM     10  C   UNL     1       4.423  -0.248  -0.474  0.00  0.00    +0.137 C 
BRANCH  10  11
ATOM     11  N   UNL     1       3.749   0.217   0.730  0.00  0.00    -0.080 NA
BRANCH  11  13
ATOM     12  C   UNL     1       4.139   2.872  -0.238  0.00  0.00    +0.197 C 
ATOM     13  S   UNL     1       4.450   1.742   1.123  0.00  0.00    +0.059 S 
ATOM     14  O   UNL     1       3.799   2.298   2.355  0.00  0.00    -0.156 OA
ATOM     15  O   UNL     1       5.938   1.638   1.268  0.00  0.00    -0.156 OA
ENDBRANCH  11  13
ENDBRANCH  10  11
ENDBRANCH   1  10
BRANCH   4  16
ATOM     16  C   UNL     1      -1.265  -1.830  -1.181  0.00  0.00    +0.118 C 
BRANCH  16  17
ATOM     17  C   UNL     1      -1.234  -1.311   0.376  0.00  0.00    +0.038 C 
ATOM     18  C   UNL     1      -1.875   0.141  -0.005  0.00  0.00    +0.074 C 
ATOM     19  N   UNL     1      -1.960   0.773   1.282  0.00  0.00    -0.269 NA
ATOM     20  C   UNL     1      -2.231  -0.117   2.363  0.00  0.00    +0.072 C 
ATOM     21  C   UNL     1      -3.075  -1.300   2.009  0.00  0.00    +0.017 C 
ATOM     22  C   UNL     1      -2.674  -1.969   0.727  0.00  0.00    +0.005 C 
BRANCH  19  23
ATOM     23  C   UNL     1      -2.844   1.908   1.209  0.00  0.00    +0.099 C 
BRANCH  23  24
ATOM     24  C   UNL     1      -4.263   1.503   1.041  0.00  0.00    -0.006 A 
ATOM     25  C   UNL     1      -5.066   1.284   2.145  0.00  0.00    -0.003 A 
ATOM     26  C   UNL     1      -6.384   0.908   1.988  0.00  0.00    -0.000 A 
ATOM     27  C   UNL     1      -6.943   0.738   0.739  0.00  0.00    -0.000 A 
ATOM     28  C   UNL     1      -6.158   0.952  -0.364  0.00  0.00    -0.000 A 
ATOM     29  C   UNL     1      -4.855   1.324  -0.195  0.00  0.00    -0.003 A 
ENDBRANCH  23  24
ENDBRANCH  19  23
ENDBRANCH  16  17
ENDBRANCH   4  16
TORSDOF 7
