REMARK  Name = 
REMARK  5 active torsions:
REMARK  status: ('A' for Active; 'I' for Inactive)
REMARK    1  A    between atoms: C_2  and  C_3
REMARK    2  A    between atoms: N_15  and  C_16
REMARK    3  A    between atoms: C_16  and  C_17
REMARK    4  A    between atoms: N_21  and  C_22
REMARK    5  A    between atoms: C_22  and  C_23
REMARK                            x       y       z     vdW  Elec       q    Type
REMARK                         _______ _______ _______ _____ _____    ______ ____
ROOT
ATOM      1  C   UNL     1       4.454   0.676   1.545  0.00  0.00    +0.006 C 
ATOM      2  C   UNL     1       4.463  -0.537   0.590  0.00  0.00    +0.039 C 
ATOM      3  C   UNL     1       3.080  -0.735  -0.050  0.00  0.00    +0.099 C 
ATOM      4  N   UNL     1       2.322  -0.878   1.169  0.00  0.00    -0.263 N 
ATOM      5  C   UNL     1       1.073  -0.240   1.398  0.00  0.00    +0.323 C 
ATOM      6  N   UNL     1       0.486   0.591   0.405  0.00  0.00    -0.188 NA
ATOM      7  O   UNL     1       0.421  -0.364   2.458  0.00  0.00    -0.251 OA
ATOM      8  C   UNL     1       3.087  -1.757   2.026  0.00  0.00    +0.095 C 
ATOM      9  C   UNL     1       4.510  -1.740   1.451  0.00  0.00    +0.027 C 
ENDROOT
BRANCH   2  10
ATOM     10  C   UNL     1       5.518  -0.347  -0.381  0.00  0.00    -0.019 A 
ATOM     11  C   UNL     1       5.950   0.923  -0.637  0.00  0.00    +0.025 A 
ATOM     12  C   UNL     1       6.926   1.278  -1.516  0.00  0.00    +0.140 A 
ATOM     13  F   UNL     1       7.276   2.568  -1.696  0.00  0.00    -0.204 F 
ATOM     14  C   UNL     1       7.555   0.256  -2.232  0.00  0.00    +0.030 A 
ATOM     15  C   UNL     1       7.154  -1.059  -2.015  0.00  0.00    +0.002 A 
ATOM     16  C   UNL     1       6.153  -1.353  -1.106  0.00  0.00    -0.004 A 
ENDBRANCH   2  10
BRANCH   6  17
ATOM     17  C   UNL     1      -0.733   1.282   0.500  0.00  0.00    +0.118 C 
BRANCH  17  18
ATOM     18  C   UNL     1      -1.934   0.201   0.752  0.00  0.00    +0.038 C 
ATOM     19  C   UNL     1      -3.074   1.178   0.108  0.00  0.00    +0.074 C 
ATOM     20  N   UNL     1      -4.190   0.358  -0.023  0.00  0.00    -0.269 NA
ATOM     21  C   UNL     1      -4.029  -1.034  -0.013  0.00  0.00    +0.072 C 
ATOM     22  C   UNL     1      -2.843  -1.552  -0.773  0.00  0.00    +0.017 C 
ATOM     23  C   UNL     1      -1.663  -0.605  -0.658  0.00  0.00    +0.005 C 
BRANCH  20  24
ATOM     24  C   UNL     1      -5.417   0.935   0.330  0.00  0.00    +0.099 C 
BRANCH  24  25
ATOM     25  C   UNL     1      -6.599   0.608  -0.472  0.00  0.00    -0.006 A 
ATOM     26  C   UNL     1      -7.849   0.917   0.071  0.00  0.00    -0.003 A 
ATOM     27  C   UNL     1      -8.987   0.633  -0.620  0.00  0.00    -0.000 A 
ATOM     28  C   UNL     1      -8.919   0.042  -1.853  0.00  0.00    -0.000 A 
ATOM     29  C   UNL     1      -7.677  -0.264  -2.391  0.00  0.00    -0.000 A 
ATOM     30  C   UNL     1      -6.517   0.019  -1.697  0.00  0.00    -0.003 A 
ENDBRANCH  24  25
ENDBRANCH  20  24
ENDBRANCH  17  18
ENDBRANCH   6  17
TORSDOF 5
