REMARK  Name = 
REMARK  7 active torsions:
REMARK  status: ('A' for Active; 'I' for Inactive)
REMARK    1  A    between atoms: C_2  and  N_3
REMARK    2  A    between atoms: C_2  and  C_15
REMARK    3  A    between atoms: C_4  and  C_6
REMARK    4  A    between atoms: C_6  and  C_7
REMARK    5  A    between atoms: N_17  and  C_18
REMARK    6  A    between atoms: C_18  and  C_19
REMARK    7  A    between atoms: C_19  and  C_20
REMARK                            x       y       z     vdW  Elec       q    Type
REMARK                         _______ _______ _______ _____ _____    ______ ____
ROOT
ATOM      1  N   UNL     1       0.268  -1.640  -0.937  0.00  0.00    -0.207 NA
ATOM      2  C   UNL     1      -0.845  -1.274  -0.247  0.00  0.00    +0.241 C 
ATOM      3  O   UNL     1      -0.721  -0.904   0.963  0.00  0.00    -0.273 OA
ENDROOT
BRANCH   1   5
ATOM      4  C   UNL     1       1.330  -2.797   0.757  0.00  0.00    +0.024 C 
ATOM      5  C   UNL     1       1.697  -1.635  -0.332  0.00  0.00    +0.098 C 
BRANCH   5   6
ATOM      6  C   UNL     1       1.479  -0.386   0.696  0.00  0.00    +0.052 C 
ATOM      7  C   UNL     1       2.612   0.558   0.223  0.00  0.00    +0.075 C 
ATOM      8  N   UNL     1       3.436  -0.365   0.880  0.00  0.00    -0.272 NA
ATOM      9  C   UNL     1       2.463  -0.556   1.867  0.00  0.00    +0.075 C 
BRANCH   8  10
ATOM     10  C   UNL     1       4.773  -0.381   1.002  0.00  0.00    +0.072 C 
BRANCH  10  11
ATOM     11  C   UNL     1       5.441  -0.130  -0.353  0.00  0.00    +0.017 C 
BRANCH  11  12
ATOM     12  C   UNL     1       4.965   1.229  -0.812  0.00  0.00    +0.001 C 
ATOM     13  C   UNL     1       6.163   2.164  -1.168  0.00  0.00    +0.000 C 
ATOM     14  C   UNL     1       5.264   2.446   0.045  0.00  0.00    +0.000 C 
ENDBRANCH  11  12
ENDBRANCH  10  11
ENDBRANCH   8  10
ENDBRANCH   5   6
ENDBRANCH   1   5
BRANCH   2  15
ATOM     15  C   UNL     1      -2.167  -1.317  -0.928  0.00  0.00    +0.089 C 
BRANCH  15  16
ATOM     16  C   UNL     1      -3.236  -0.801   0.173  0.00  0.00    +0.033 C 
ATOM     17  C   UNL     1      -3.021   0.769  -0.199  0.00  0.00    +0.151 C 
ATOM     18  S   UNL     1      -4.556   1.583   0.147  0.00  0.00    -0.010 S 
ATOM     19  O   UNL     1      -5.099   2.211  -1.111  0.00  0.00    -0.173 OA
ATOM     20  O   UNL     1      -4.296   2.636   1.186  0.00  0.00    -0.173 OA
ATOM     21  C   UNL     1      -5.767   0.454   0.785  0.00  0.00    +0.151 C 
ATOM     22  C   UNL     1      -5.674  -0.898   0.114  0.00  0.00    +0.025 C 
ATOM     23  C   UNL     1      -4.508  -0.966  -0.847  0.00  0.00    +0.004 C 
ENDBRANCH  15  16
ENDBRANCH   2  15
TORSDOF 7
