REMARK  Name = 
REMARK  9 active torsions:
REMARK  status: ('A' for Active; 'I' for Inactive)
REMARK    1  A    between atoms: C_2  and  C_3
REMARK    2  A    between atoms: C_3  and  C_4
REMARK    3  A    between atoms: C_4  and  C_5
REMARK    4  A    between atoms: C_4  and  C_7
REMARK    5  A    between atoms: N_9  and  C_10
REMARK    6  A    between atoms: C_10  and  C_12
REMARK    7  A    between atoms: N_14  and  C_15
REMARK    8  A    between atoms: C_15  and  C_16
REMARK    9  A    between atoms: C_16  and  C_17
REMARK                            x       y       z     vdW  Elec       q    Type
REMARK                         _______ _______ _______ _____ _____    ______ ____
ROOT
ATOM      1  C   UNL     1      -0.014   0.914  -1.195  0.00  0.00    +0.052 C 
ATOM      2  C   UNL     1      -1.249   1.472  -0.514  0.00  0.00    +0.075 C 
ATOM      3  N   UNL     1      -1.494   0.144   0.015  0.00  0.00    -0.272 NA
ATOM      4  C   UNL     1      -0.265  -0.427  -0.536  0.00  0.00    +0.075 C 
ENDROOT
BRANCH   1   5
ATOM      5  C   UNL     1       1.274   1.486  -0.328  0.00  0.00    +0.098 C 
ATOM      6  C   UNL     1       1.800   2.438  -1.573  0.00  0.00    +0.024 C 
BRANCH   5   8
ATOM      7  C   UNL     1       3.510   0.577  -0.711  0.00  0.00    +0.241 C 
ATOM      8  N   UNL     1       2.183   0.265  -0.734  0.00  0.00    -0.207 NA
ATOM      9  O   UNL     1       3.970   1.717  -0.400  0.00  0.00    -0.273 OA
BRANCH   7  10
ATOM     10  C   UNL     1       4.650  -0.460  -1.076  0.00  0.00    +0.078 C 
BRANCH  10  11
ATOM     11  C   UNL     1       3.962  -1.084  -2.399  0.00  0.00    +0.009 C 
ATOM     12  C   UNL     1       2.532  -1.260  -2.287  0.00  0.00    +0.001 C 
ENDBRANCH  10  11
BRANCH  10  13
ATOM     13  C   UNL     1       4.197  -1.644  -0.036  0.00  0.00    +0.009 C 
BRANCH  13  15
ATOM     14  C   UNL     1       4.207   0.038   1.773  0.00  0.00    +0.000 C 
ATOM     15  C   UNL     1       4.743  -1.272   1.310  0.00  0.00    +0.000 C 
ENDBRANCH  13  15
ENDBRANCH  10  13
ENDBRANCH   7  10
ENDBRANCH   5   8
ENDBRANCH   1   5
BRANCH   3  16
ATOM     16  C   UNL     1      -1.527   0.182   1.448  0.00  0.00    +0.077 C 
BRANCH  16  17
ATOM     17  C   UNL     1      -2.822   0.783   1.902  0.00  0.00    +0.044 C 
BRANCH  17  18
ATOM     18  C   UNL     1      -3.927  -0.103   1.361  0.00  0.00    -0.021 A 
ATOM     19  C   UNL     1      -4.488   0.128   0.133  0.00  0.00    -0.004 A 
ATOM     20  C   UNL     1      -5.489  -0.698  -0.321  0.00  0.00    -0.000 A 
ATOM     21  C   UNL     1      -5.967  -1.769   0.410  0.00  0.00    -0.000 A 
ATOM     22  C   UNL     1      -5.391  -1.994   1.656  0.00  0.00    -0.000 A 
ATOM     23  C   UNL     1      -4.392  -1.163   2.102  0.00  0.00    -0.004 A 
ENDBRANCH  17  18
ENDBRANCH  16  17
ENDBRANCH   3  16
TORSDOF 9
