REMARK  Name = 
REMARK  7 active torsions:
REMARK  status: ('A' for Active; 'I' for Inactive)
REMARK    1  A    between atoms: C_2  and  N_3
REMARK    2  A    between atoms: C_2  and  C_15
REMARK    3  A    between atoms: C_4  and  C_6
REMARK    4  A    between atoms: C_6  and  C_7
REMARK    5  A    between atoms: N_17  and  C_18
REMARK    6  A    between atoms: C_18  and  C_19
REMARK    7  A    between atoms: C_19  and  C_20
REMARK                            x       y       z     vdW  Elec       q    Type
REMARK                         _______ _______ _______ _____ _____    ______ ____
ROOT
ATOM      1  N   UNL     1       0.097  -1.619   1.358  0.00  0.00    -0.207 NA
ATOM      2  C   UNL     1      -1.097  -1.083   0.790  0.00  0.00    +0.241 C 
ATOM      3  O   UNL     1      -1.488  -1.550  -0.299  0.00  0.00    -0.273 OA
ENDROOT
BRANCH   1   5
ATOM      4  C   UNL     1       1.675  -3.367   1.553  0.00  0.00    +0.024 C 
ATOM      5  C   UNL     1       0.664  -2.740   0.406  0.00  0.00    +0.098 C 
BRANCH   5   6
ATOM      6  C   UNL     1       1.762  -1.777  -0.328  0.00  0.00    +0.052 C 
ATOM      7  C   UNL     1       3.015  -2.595  -0.362  0.00  0.00    +0.075 C 
ATOM      8  N   UNL     1       3.614  -1.574   0.512  0.00  0.00    -0.272 NA
ATOM      9  C   UNL     1       2.368  -0.783   0.541  0.00  0.00    +0.075 C 
BRANCH   8  10
ATOM     10  C   UNL     1       4.667  -0.928  -0.263  0.00  0.00    +0.072 C 
BRANCH  10  11
ATOM     11  C   UNL     1       5.161   0.334   0.415  0.00  0.00    +0.017 C 
BRANCH  11  12
ATOM     12  C   UNL     1       3.931   1.240   0.520  0.00  0.00    +0.001 C 
ATOM     13  C   UNL     1       4.016   2.660   0.117  0.00  0.00    +0.000 C 
ATOM     14  C   UNL     1       3.247   1.645  -0.752  0.00  0.00    +0.000 C 
ENDBRANCH  11  12
ENDBRANCH  10  11
ENDBRANCH   8  10
ENDBRANCH   5   6
ENDBRANCH   1   5
BRANCH   2  15
ATOM     15  C   UNL     1      -1.884  -0.010   1.429  0.00  0.00    +0.089 C 
BRANCH  15  16
ATOM     16  C   UNL     1      -3.114   0.200   0.380  0.00  0.00    +0.033 C 
ATOM     17  C   UNL     1      -2.273   1.292  -0.538  0.00  0.00    +0.151 C 
ATOM     18  S   UNL     1      -3.555   1.850  -1.638  0.00  0.00    -0.010 S 
ATOM     19  O   UNL     1      -3.343   1.116  -2.938  0.00  0.00    -0.173 OA
ATOM     20  O   UNL     1      -3.396   3.314  -1.855  0.00  0.00    -0.173 OA
ATOM     21  C   UNL     1      -5.094   1.454  -0.905  0.00  0.00    +0.151 C 
ATOM     22  C   UNL     1      -5.151   1.518   0.576  0.00  0.00    +0.025 C 
ATOM     23  C   UNL     1      -3.821   1.403   1.282  0.00  0.00    +0.004 C 
ENDBRANCH  15  16
ENDBRANCH   2  15
TORSDOF 7
