REMARK  Name = 
REMARK  8 active torsions:
REMARK  status: ('A' for Active; 'I' for Inactive)
REMARK    1  A    between atoms: C_2  and  C_4
REMARK    2  A    between atoms: C_4  and  O_5
REMARK    3  A    between atoms: O_5  and  C_6
REMARK    4  A    between atoms: C_6  and  C_7
REMARK    5  A    between atoms: C_7  and  N_8
REMARK    6  A    between atoms: C_10  and  C_11
REMARK    7  A    between atoms: C_11  and  N_13
REMARK    8  A    between atoms: C_14  and  C_16
REMARK                            x       y       z     vdW  Elec       q    Type
REMARK                         _______ _______ _______ _____ _____    ______ ____
ROOT
ATOM      1  N   UNL     1      -1.408   0.255   0.043  0.00  0.00    -0.270 NA
ATOM      2  C   UNL     1      -1.274   1.190   1.179  0.00  0.00    +0.075 C 
ATOM      3  C   UNL     1       0.209   0.761   1.101  0.00  0.00    +0.052 C 
ATOM      4  C   UNL     1      -0.504  -0.579   0.814  0.00  0.00    +0.075 C 
ENDROOT
BRANCH   3   5
ATOM      5  C   UNL     1       0.528   1.241  -0.448  0.00  0.00    +0.098 C 
ATOM      6  C   UNL     1       1.249   2.616   0.051  0.00  0.00    +0.024 C 
BRANCH   5   7
ATOM      7  N   UNL     1       1.783   0.353  -0.587  0.00  0.00    -0.201 NA
ATOM      8  C   UNL     1       2.913   0.547   0.201  0.00  0.00    +0.301 C 
ATOM      9  O   UNL     1       2.780   1.506   1.011  0.00  0.00    -0.265 OA
BRANCH   8  10
ATOM     10  C   UNL     1       4.134  -0.205   0.169  0.00  0.00    +0.219 A 
ATOM     11  N   UNL     1       4.235  -1.258  -0.675  0.00  0.00    -0.221 NA
ATOM     12  C   UNL     1       5.357  -2.004  -0.746  0.00  0.00    +0.102 A 
ATOM     13  C   UNL     1       6.413  -1.699   0.041  0.00  0.00    +0.041 A 
ATOM     14  C   UNL     1       6.322  -0.627   0.907  0.00  0.00    +0.102 A 
ATOM     15  N   UNL     1       5.166   0.089   0.937  0.00  0.00    -0.221 NA
ENDBRANCH   8  10
ENDBRANCH   5   7
ENDBRANCH   3   5
BRANCH   1  16
ATOM     16  C   UNL     1      -2.709  -0.224  -0.237  0.00  0.00    +0.105 C 
BRANCH  16  17
ATOM     17  C   UNL     1      -3.400   0.854  -1.053  0.00  0.00    +0.159 C 
BRANCH  17  18
ATOM     18  O   UNL     1      -4.677   0.402  -1.341  0.00  0.00    -0.352 OA
BRANCH  18  19
ATOM     19  C   UNL     1      -5.353   0.179  -0.161  0.00  0.00    +0.142 C 
BRANCH  19  21
ATOM     20  C   UNL     1      -7.357   0.848  -1.352  0.00  0.00    +0.003 C 
ATOM     21  C   UNL     1      -6.761  -0.304  -0.531  0.00  0.00    +0.030 C 
ATOM     22  C   UNL     1      -7.644  -0.464   0.681  0.00  0.00    +0.003 C 
ENDBRANCH  19  21
ENDBRANCH  18  19
ENDBRANCH  17  18
ENDBRANCH  16  17
ENDBRANCH   1  16
TORSDOF 8
